data/inputs/nesta_case1394sop_eir.m
%%%%%%%%%%%%%%%%%%%%%%%%%%%%%%%%%%%%%%%%%%%%%%%%%%%%%%%%%%%%%%%%%%%%%%%%%%%
%%%%                                                                  %%%%%
%%%%      NICTA Energy System Test Case Archive (NESTA) - v0.7.0      %%%%%
%%%%              Optimal Power Flow - Typical Operation              %%%%%
%%%%                         05 - June - 2017                         %%%%%
%%%%                                                                  %%%%%
%%%%%%%%%%%%%%%%%%%%%%%%%%%%%%%%%%%%%%%%%%%%%%%%%%%%%%%%%%%%%%%%%%%%%%%%%%%
%
%  EIRGrid - Summer Night Valley 2013
%
%  Based on data from:
%    "Ten Year Transmission Forecast Statement 2013"
%    http://www.eirgrid.com/transmission/transmissionforecaststatement/
%    Accessed: 25/8/2014
%  
%  WARNING: This is a preliminary translation from a PSS/E-30 file.
%    The network produces AC Power Flow solutions, but has not been 
%    validated to PSS/E.  See the end of this file for detailed 
%    translation notes.
%
function mpc = nesta_case1394sop_eir
mpc.version = '2';
mpc.baseMVA = 100.0;

%% bus data
%	bus_i	type	Pd	Qd	Gs	Bs	area	Vm	Va	baseKV	zone	Vmax	Vmin
mpc.bus = [
	10	 1	 21.13	 3.71	 0.0	 0.0	 2	    1.02101	   -9.23796	 38.0	 1	    1.15000	    0.85000;
	11	 1	 11.99	 5.26	 0.0	 0.0	 2	    1.01971	   -8.49993	 38.0	 1	    1.15000	    0.85000;
	12	 1	 21.13	 3.04	 0.0	 0.0	 1	    1.02940	   -9.44916	 38.0	 1	    1.15000	    0.85000;
	13	 1	 25.89	 2.2	 0.0	 0.0	 1	    1.03127	   -9.91148	 38.0	 1	    1.15000	    0.85000;
	14	 1	 19.41	 6.38	 0.0	 0.0	 2	    1.02113	   -8.72051	 38.0	 1	    1.15000	    0.85000;
	15	 1	 16.59	 5.46	 0.0	 0.0	 2	    1.02335	   -8.32350	 38.0	 1	    1.15000	    0.85000;
	1021	 1	 0.0	 0.0	 0.0	 0.0	 4	    1.05113	   -0.48156	 110.0	 1	    1.15000	    0.85000;
	1041	 1	 0.47	 0.1	 0.0	 0.0	 3	    1.06786	    2.54189	 110.0	 1	    1.15000	    0.85000;
	1042	 1	 0.0	 0.0	 0.0	 0.0	 3	    1.06950	    3.29617	 220.0	 1	    1.15000	    0.85000;
	1052	 1	 0.0	 0.0	 0.0	 0.0	 3	    1.07023	    4.30342	 220.0	 1	    1.15000	    0.85000;
	1061	 1	 0.0	 0.0	 0.0	 0.0	 9	    0.98715	   -4.16335	 110.0	 1	    1.15000	    0.85000;
	1062	 1	 0.0	 0.0	 0.0	 0.0	 3	    1.06950	    3.29617	 220.0	 1	    1.15000	    0.85000;
	1071	 1	 0.0	 0.0	 0.0	 0.0	 4	    1.03603	   -2.31073	 110.0	 1	    1.15000	    0.85000;
	1072	 1	 0.0	 0.0	 0.0	 0.0	 3	    1.06947	    3.28935	 220.0	 1	    1.15000	    0.85000;
	1081	 1	 0.0	 0.0	 0.0	 0.0	 7	    1.05437	    0.04288	 110.0	 1	    1.15000	    0.85000;
	1101	 1	 16.62	 4.98	 0.0	 0.0	 5	    1.02626	   -3.04083	 110.0	 1	    1.15000	    0.85000;
	1121	 1	 0.0	 0.0	 0.0	 0.0	 6	    1.01668	   -5.58283	 110.0	 1	    1.15000	    0.85000;
	1122	 1	 0.0	 0.0	 0.0	 0.0	 6	    1.01410	   -5.23234	 220.0	 1	    1.15000	    0.85000;
	1141	 1	 0.0	 0.0	 0.0	 0.0	 9	    1.02005	   -3.50713	 110.0	 1	    1.15000	    0.85000;
	1161	 1	 0.0	 0.0	 0.0	 0.0	 7	    1.06457	    3.09064	 110.0	 1	    1.15000	    0.85000;
	1181	 1	 0.0	 0.0	 0.0	 0.0	 10	    0.96910	   -5.80176	 110.0	 1	    1.15000	    0.85000;
	1201	 1	 0.0	 0.0	 0.0	 0.0	 1	    1.00132	   -7.56646	 110.0	 1	    1.15000	    0.85000;
	1221	 1	 0.0	 0.0	 0.0	 0.0	 8	    1.02534	   -5.46432	 110.0	 1	    1.15000	    0.85000;
	1231	 1	 0.0	 0.0	 0.0	 0.0	 6	    1.03028	   -3.80505	 110.0	 1	    1.15000	    0.85000;
	1251	 1	 0.0	 0.0	 0.0	 0.0	 4	    1.04340	   -1.26371	 110.0	 1	    1.15000	    0.85000;
	1271	 1	 0.0	 0.0	 0.0	 0.0	 10	    0.98612	   -7.64512	 110.0	 1	    1.15000	    0.85000;
	1281	 1	 0.0	 0.0	 0.0	 0.0	 3	    1.06068	    1.97704	 110.0	 1	    1.15000	    0.85000;
	1301	 1	 0.0	 0.0	 0.0	 0.0	 6	    1.01028	   -5.98146	 110.0	 1	    1.15000	    0.85000;
	1321	 1	 0.0	 0.0	 0.0	 0.0	 8	    1.00647	   -6.93800	 110.0	 1	    1.15000	    0.85000;
	1341	 1	 0.0	 0.0	 0.0	 0.0	 9	    0.94012	   -4.79163	 110.0	 1	    1.15000	    0.85000;
	1351	 1	 0.0	 0.0	 0.0	 0.0	 8	    1.00814	   -6.69220	 110.0	 1	    1.15000	    0.85000;
	1361	 1	 0.0	 0.0	 0.0	 0.0	 5	    1.02710	   -3.17441	 110.0	 1	    1.15000	    0.85000;
	1381	 1	 0.0	 0.0	 0.0	 0.0	 3	    1.06919	    2.63383	 110.0	 1	    1.15000	    0.85000;
	1391	 1	 0.0	 0.0	 0.0	 0.0	 3	    1.06655	    2.58810	 110.0	 1	    1.15000	    0.85000;
	1401	 1	 0.0	 0.0	 0.0	 0.0	 9	    1.01968	   -4.14300	 110.0	 1	    1.15000	    0.85000;
	1421	 1	 0.0	 0.0	 0.0	 0.0	 1	    1.00091	   -6.49560	 110.0	 1	    1.15000	    0.85000;
	1441	 1	 0.0	 0.0	 0.0	 0.0	 3	    1.05882	    2.04427	 110.0	 1	    1.15000	    0.85000;
	1451	 1	 0.0	 0.0	 0.0	 0.0	 1	    0.98992	   -8.06093	 110.0	 1	    1.15000	    0.85000;
	1461	 1	 0.0	 0.0	 0.0	 0.0	 5	    1.05326	    0.58229	 110.0	 1	    1.15000	    0.85000;
	1481	 1	 0.0	 0.0	 0.0	 0.0	 5	    1.03051	   -3.54727	 110.0	 1	    1.15000	    0.85000;
	1501	 1	 0.0	 0.0	 0.0	 0.0	 3	    1.05863	    2.03205	 110.0	 1	    1.15000	    0.85000;
	1541	 1	 0.0	 0.0	 0.0	 0.0	 6	    1.02112	   -4.98400	 110.0	 1	    1.15000	    0.85000;
	1551	 1	 0.0	 0.0	 0.0	 0.0	 3	    1.06771	    2.76753	 110.0	 1	    1.15000	    0.85000;
	1581	 1	 0.0	 0.0	 0.0	 0.0	 1	    1.00120	   -7.58088	 110.0	 1	    1.15000	    0.85000;
	1601	 1	 0.0	 0.0	 0.0	 0.0	 3	    1.06723	    2.88713	 110.0	 1	    1.15000	    0.85000;
	1602	 1	 0.0	 0.0	 0.0	 0.0	 3	    1.06714	    2.76487	 220.0	 1	    1.15000	    0.85000;
	1611	 1	 0.0	 0.0	 0.0	 0.0	 7	    1.07552	    4.33521	 110.0	 1	    1.15000	    0.85000;
	1621	 1	 0.0	 0.0	 0.0	 0.0	 3	    1.06332	    2.16234	 110.0	 1	    1.15000	    0.85000;
	1631	 1	 0.0	 0.0	 0.0	 0.0	 9	    0.98662	   -3.85122	 110.0	 1	    1.15000	    0.85000;
	1641	 1	 0.0	 0.0	 0.0	 0.0	 9	    1.03363	   -3.87548	 110.0	 1	    1.15000	    0.85000;
	1642	 1	 0.0	 0.0	 0.0	 0.0	 9	    1.03295	   -3.60688	 220.0	 1	    1.15000	    0.85000;
	1651	 1	 0.0	 0.0	 0.0	 0.0	 7	    1.06084	    2.22789	 110.0	 1	    1.15000	    0.85000;
	1661	 1	 0.0	 0.0	 0.0	 0.0	 9	    1.03140	   -5.04433	 110.0	 1	    1.15000	    0.85000;
	1681	 1	 0.0	 0.0	 0.0	 0.0	 3	    1.06548	    2.62067	 110.0	 1	    1.15000	    0.85000;
	1691	 1	 0.0	 0.0	 0.0	 0.0	 1	    1.00141	   -6.42709	 110.0	 1	    1.15000	    0.85000;
	1701	 1	 0.0	 0.0	 0.0	 0.0	 9	    0.95535	   -3.73606	 110.0	 1	    1.15000	    0.85000;
	1711	 1	 0.0	 0.0	 0.0	 0.0	 1	    1.00216	   -8.16793	 110.0	 1	    1.15000	    0.85000;
	1721	 1	 0.0	 0.0	 0.0	 0.0	 5	    1.03023	   -2.21437	 110.0	 1	    1.15000	    0.85000;
	1731	 1	 0.0	 0.0	 0.0	 0.0	 1	    1.00216	   -8.16793	 110.0	 1	    1.15000	    0.85000;
	1741	 1	 0.0	 0.0	 0.0	 0.0	 2	    1.00117	   -6.40644	 110.0	 1	    1.15000	    0.85000;
	1742	 1	 0.0	 0.0	 0.0	 0.0	 2	    1.00293	   -5.86060	 220.0	 1	    1.15000	    0.85000;
	1761	 1	 0.0	 0.0	 0.0	 0.0	 9	    0.95537	   -3.73638	 110.0	 1	    1.15000	    0.85000;
	1781	 1	 0.0	 0.0	 0.0	 0.0	 7	    1.06418	    3.07029	 110.0	 1	    1.15000	    0.85000;
	1801	 1	 0.0	 0.0	 0.0	 0.0	 1	    1.00156	   -6.46111	 110.0	 1	    1.15000	    0.85000;
	1821	 1	 0.0	 0.0	 0.0	 0.0	 9	    1.02964	   -4.18161	 110.0	 1	    1.15000	    0.85000;
	1841	 1	 0.0	 0.0	 0.0	 0.0	 6	    1.02616	   -4.29940	 110.0	 1	    1.15000	    0.85000;
	1861	 1	 0.0	 0.0	 0.0	 0.0	 9	    0.99233	   -4.47415	 110.0	 1	    1.15000	    0.85000;
	1871	 1	 0.0	 0.0	 0.0	 0.0	 2	    0.99195	   -7.88333	 110.0	 1	    1.15000	    0.85000;
	1881	 1	 0.0	 0.0	 0.0	 0.0	 3	    1.05394	    0.29867	 110.0	 1	    1.15000	    0.85000;
	1901	 1	 0.0	 0.0	 0.0	 0.0	 6	    1.02826	   -5.58155	 110.0	 1	    1.15000	    0.85000;
	1921	 1	 0.0	 0.0	 0.0	 0.0	 3	    1.06751	    2.43337	 110.0	 1	    1.15000	    0.85000;
	1931	 1	 0.0	 0.0	 0.0	 0.0	 9	    1.00157	   -3.63341	 110.0	 1	    1.15000	    0.85000;
	1941	 1	 0.0	 0.0	 0.0	 0.0	 8	    1.02616	   -4.11595	 110.0	 1	    1.15000	    0.85000;
	1951	 1	 0.0	 0.0	 0.0	 0.0	 9	    1.03012	   -5.39889	 110.0	 1	    1.15000	    0.85000;
	1961	 1	 0.0	 0.0	 0.0	 0.0	 3	    1.06432	    2.06052	 110.0	 1	    1.15000	    0.85000;
	1971	 1	 0.0	 0.0	 0.0	 0.0	 7	    1.07619	    4.58092	 110.0	 1	    1.15000	    0.85000;
	1981	 1	 0.0	 0.0	 0.0	 0.0	 9	    0.94245	   -5.56946	 110.0	 1	    1.15000	    0.85000;
	1991	 1	 0.0	 0.0	 0.0	 0.0	 6	    1.02509	   -4.32479	 110.0	 1	    1.15000	    0.85000;
	2001	 1	 0.0	 0.0	 0.0	 0.0	 5	    1.03349	   -3.09043	 110.0	 1	    1.15000	    0.85000;
	2002	 1	 0.0	 0.0	 0.0	 0.0	 5	    1.03503	   -2.53358	 220.0	 1	    1.15000	    0.85000;
	2021	 1	 0.0	 0.0	 0.0	 0.0	 1	    0.99050	   -8.29990	 110.0	 1	    1.15000	    0.85000;
	2041	 1	 0.0	 0.0	 0.0	 0.0	 2	    0.99226	   -7.82261	 110.0	 1	    1.15000	    0.85000;
	2042	 1	 0.0	 0.0	 0.0	 0.0	 2	    0.99886	   -7.07392	 220.0	 1	    1.15000	    0.85000;
	2052	 1	 0.0	 0.0	 0.0	 0.0	 2	    0.99886	   -7.07403	 220.0	 1	    1.15000	    0.85000;
	2081	 4	 0.0	 0.0	 0.0	 0.0	 3	    1.00000	    0.00000	 110.0	 1	    1.15000	    0.85000;
	2101	 1	 0.0	 0.0	 0.0	 0.0	 10	    0.98017	   -5.42464	 110.0	 1	    1.15000	    0.85000;
	2121	 1	 0.0	 0.0	 0.0	 0.0	 4	    1.04388	   -1.31824	 110.0	 1	    1.15000	    0.85000;
	2131	 1	 0.0	 0.0	 0.0	 0.0	 3	    1.05985	    2.15920	 110.0	 1	    1.15000	    0.85000;
	2141	 1	 0.0	 0.0	 0.0	 0.0	 5	    1.04900	   -1.43680	 110.0	 1	    1.15000	    0.85000;
	2161	 1	 0.0	 0.0	 0.0	 0.0	 5	    1.02709	   -2.98683	 110.0	 1	    1.15000	    0.85000;
	2181	 1	 0.0	 0.0	 0.0	 0.0	 10	    0.97975	   -7.30633	 110.0	 1	    1.15000	    0.85000;
	2202	 1	 0.0	 0.0	 0.0	 0.0	 2	    1.01136	   -6.89601	 220.0	 1	    1.15000	    0.85000;
	2204	 1	 0.0	 0.0	 0.0	 0.0	 2	    1.03454	   -7.06080	 380.0	 1	    1.15000	    0.85000;
	2221	 1	 0.0	 0.0	 0.0	 0.0	 3	    1.05992	    2.14210	 110.0	 1	    1.15000	    0.85000;
	2231	 1	 0.0	 0.0	 0.0	 0.0	 4	    1.03606	   -2.31166	 110.0	 1	    1.15000	    0.85000;
	2241	 1	 0.0	 0.0	 0.0	 0.0	 5	    1.02692	   -3.46116	 110.0	 1	    1.15000	    0.85000;
	2251	 1	 0.0	 0.0	 0.0	 0.0	 1	    1.00232	   -8.15255	 110.0	 1	    1.15000	    0.85000;
	2261	 1	 0.0	 0.0	 0.0	 0.0	 8	    0.99487	   -8.54748	 110.0	 1	    1.15000	    0.85000;
	2281	 1	 0.0	 0.0	 0.0	 0.0	 9	    1.03091	   -4.85696	 110.0	 1	    1.15000	    0.85000;
	2301	 1	 0.0	 0.0	 0.0	 0.0	 8	    0.99532	   -8.49188	 110.0	 1	    1.15000	    0.85000;
	2321	 1	 0.0	 0.0	 0.0	 0.0	 9	    0.94662	   -1.45168	 110.0	 1	    1.15000	    0.85000;
	2361	 1	 0.0	 0.0	 0.0	 0.0	 4	    1.04010	   -1.77744	 110.0	 1	    1.15000	    0.85000;
	2481	 1	 0.0	 0.0	 0.0	 0.0	 2	    0.99988	   -6.49574	 110.0	 1	    1.15000	    0.85000;
	2491	 1	 0.0	 0.0	 0.0	 0.0	 2	    0.99983	   -6.49541	 110.0	 1	    1.15000	    0.85000;
	2521	 1	 0.0	 0.0	 0.0	 0.0	 9	    0.99385	   -4.42433	 110.0	 1	    1.15000	    0.85000;
	2522	 1	 0.0	 0.0	 0.0	 0.0	 9	    0.99976	   -4.14869	 220.0	 1	    1.15000	    0.85000;
	2541	 1	 0.0	 0.0	 0.0	 0.0	 1	    1.00778	   -7.78286	 110.0	 1	    1.15000	    0.85000;
	2551	 1	 0.0	 0.0	 0.0	 0.0	 1	    1.00662	   -7.22586	 110.0	 1	    1.15000	    0.85000;
	2561	 1	 0.0	 0.0	 0.0	 0.0	 2	    1.00138	   -7.50393	 110.0	 1	    1.15000	    0.85000;
	2562	 1	 0.0	 0.0	 0.0	 0.0	 2	    0.99923	   -6.95820	 220.0	 1	    1.15000	    0.85000;
	2563	 1	 0.0	 0.0	 0.0	 0.0	 2	    0.99930	   -6.96470	 220.0	 1	    1.15000	    0.85000;
	2571	 1	 0.0	 0.0	 0.0	 0.0	 2	    1.00225	   -8.01659	 110.0	 1	    1.15000	    0.85000;
	2581	 1	 0.0	 0.0	 0.0	 0.0	 2	    0.99124	   -7.96633	 110.0	 1	    1.15000	    0.85000;
	2671	 1	 0.0	 0.0	 0.0	 0.0	 9	    0.98558	   -3.66582	 110.0	 1	    1.15000	    0.85000;
	2681	 1	 0.0	 0.0	 0.0	 0.0	 9	    0.99084	   -4.61474	 110.0	 1	    1.15000	    0.85000;
	2701	 1	 0.0	 0.0	 0.0	 0.0	 1	    0.99981	   -8.50814	 110.0	 1	    1.15000	    0.85000;
	2721	 1	 0.0	 0.0	 0.0	 0.0	 2	    1.00153	   -7.34927	 110.0	 1	    1.15000	    0.85000;
	2731	 1	 0.0	 0.0	 0.0	 0.0	 7	    1.07628	    4.60099	 110.0	 1	    1.15000	    0.85000;
	2741	 1	 0.0	 0.0	 0.0	 0.0	 6	    1.02927	   -3.89165	 110.0	 1	    1.15000	    0.85000;
	2742	 1	 0.0	 0.0	 0.0	 0.0	 6	    1.02886	   -3.69751	 220.0	 1	    1.15000	    0.85000;
	2761	 1	 0.0	 0.0	 0.0	 0.0	 1	    1.00234	   -8.17182	 110.0	 1	    1.15000	    0.85000;
	2771	 1	 0.0	 0.0	 0.0	 0.0	 7	    1.07834	    4.62086	 110.0	 1	    1.15000	    0.85000;
	2780	 1	 0.0	 0.0	 0.0	 0.0	 9	    1.03199	   -4.17946	 110.0	 1	    1.15000	    0.85000;
	2781	 1	 0.0	 0.0	 0.0	 0.0	 9	    1.03199	   -4.17946	 110.0	 1	    1.15000	    0.85000;
	2801	 1	 0.0	 0.0	 0.0	 0.0	 9	    0.94650	   -2.56005	 110.0	 1	    1.15000	    0.85000;
	2821	 1	 0.0	 0.0	 0.0	 0.0	 9	    0.94520	   -5.99905	 110.0	 1	    1.15000	    0.85000;
	2841	 1	 0.0	 0.0	 0.0	 0.0	 10	    0.97951	   -6.74616	 110.0	 1	    1.15000	    0.85000;
	2842	 1	 0.0	 0.0	 0.0	 0.0	 10	    0.98447	   -5.82456	 220.0	 1	    1.15000	    0.85000;
	2852	 1	 0.0	 0.0	 0.0	 0.0	 3	    1.07045	    4.40944	 220.0	 1	    1.15000	    0.85000;
	2861	 1	 0.0	 0.0	 0.0	 0.0	 1	    0.98923	   -8.28513	 110.0	 1	    1.15000	    0.85000;
	2881	 1	 0.0	 0.0	 0.0	 0.0	 3	    1.05245	    0.03740	 110.0	 1	    1.15000	    0.85000;
	2941	 1	 0.0	 0.0	 0.0	 0.0	 1	    1.00801	   -7.77838	 110.0	 1	    1.15000	    0.85000;
	2951	 1	 0.0	 0.0	 0.0	 0.0	 1	    1.00669	   -7.21701	 110.0	 1	    1.15000	    0.85000;
	2962	 1	 0.0	 0.0	 0.0	 0.0	 2	    0.99874	   -6.87136	 220.0	 1	    1.15000	    0.85000;
	2972	 1	 0.0	 0.0	 0.0	 0.0	 2	    0.99898	   -7.07463	 220.0	 1	    1.15000	    0.85000;
	3061	 1	 0.0	 0.0	 0.0	 0.0	 3	    1.06342	    2.22375	 110.0	 1	    1.15000	    0.85000;
	3081	 1	 0.0	 0.0	 0.0	 0.0	 2	    1.00669	   -7.19534	 110.0	 1	    1.15000	    0.85000;
	3082	 1	 0.0	 0.0	 0.0	 0.0	 2	    1.00611	   -6.82764	 220.0	 1	    1.15000	    0.85000;
	3091	 1	 0.0	 0.0	 0.0	 0.0	 2	    0.99226	   -8.14093	 110.0	 1	    1.15000	    0.85000;
	3101	 1	 0.0	 0.0	 0.0	 0.0	 5	    1.02267	   -4.01412	 110.0	 1	    1.15000	    0.85000;
	3122	 1	 0.0	 0.0	 0.0	 0.0	 2	    1.00426	   -5.84804	 220.0	 1	    1.15000	    0.85000;
	3200	 1	 0.0	 0.0	 0.0	 0.0	 3	    1.06563	    2.73870	 110.0	 1	    1.15000	    0.85000;
	3201	 1	 0.0	 0.0	 0.0	 0.0	 3	    1.06402	    2.00884	 110.0	 1	    1.15000	    0.85000;
	3202	 1	 0.0	 0.0	 0.0	 0.0	 3	    1.06563	    2.73870	 220.0	 1	    1.15000	    0.85000;
	3203	 1	 0.0	 0.0	 0.0	 0.0	 3	    1.06562	    2.73415	 220.0	 1	    1.15000	    0.85000;
	3209	 1	 0.0	 0.0	 0.0	 0.0	 3	    1.06402	    2.01091	 110.0	 1	    1.15000	    0.85000;
	3221	 1	 0.0	 0.0	 0.0	 0.0	 3	    1.06355	    1.97371	 110.0	 1	    1.15000	    0.85000;
	3241	 1	 0.0	 0.0	 0.0	 0.0	 8	    1.00378	   -7.10320	 110.0	 1	    1.15000	    0.85000;
	3261	 1	 0.0	 0.0	 0.0	 0.0	 6	    1.02340	   -5.45844	 110.0	 1	    1.15000	    0.85000;
	3281	 1	 0.0	 0.0	 0.0	 0.0	 7	    1.05437	    0.04777	 110.0	 1	    1.15000	    0.85000;
	3282	 1	 0.0	 0.0	 0.0	 0.0	 7	    1.04873	    0.46808	 220.0	 1	    1.15000	    0.85000;
	3301	 1	 0.0	 0.0	 0.0	 0.0	 7	    1.06910	    3.47234	 110.0	 1	    1.15000	    0.85000;
	3321	 1	 0.0	 0.0	 0.0	 0.0	 10	    0.97195	   -7.17014	 110.0	 1	    1.15000	    0.85000;
	3341	 1	 0.0	 0.0	 0.0	 0.0	 6	    1.02946	   -5.58000	 110.0	 1	    1.15000	    0.85000;
	3342	 1	 0.0	 0.0	 0.0	 0.0	 6	    1.01675	   -5.48010	 220.0	 1	    1.15000	    0.85000;
	3361	 1	 0.0	 0.0	 0.0	 0.0	 9	    0.94518	   -1.07824	 110.0	 1	    1.15000	    0.85000;
	3381	 1	 0.0	 0.0	 0.0	 0.0	 8	    0.99299	   -8.73602	 110.0	 1	    1.15000	    0.85000;
	3401	 1	 0.0	 0.0	 0.0	 0.0	 5	    1.03034	   -3.60622	 110.0	 1	    1.15000	    0.85000;
	3421	 1	 0.0	 0.0	 0.0	 0.0	 1	    1.00215	   -8.16754	 110.0	 1	    1.15000	    0.85000;
	3431	 1	 0.0	 0.0	 0.0	 0.0	 1	    0.98894	   -8.30439	 110.0	 1	    1.15000	    0.85000;
	3501	 1	 0.0	 0.0	 0.0	 0.0	 9	    1.01365	   -3.29078	 110.0	 1	    1.15000	    0.85000;
	3521	 1	 0.0	 0.0	 0.0	 0.0	 10	    0.98735	   -5.27763	 110.0	 1	    1.15000	    0.85000;
	3522	 1	 0.0	 0.0	 0.0	 0.0	 10	    0.97462	   -4.23134	 220.0	 1	    1.15000	    0.85000;
	3541	 1	 0.0	 0.0	 0.0	 0.0	 7	    1.05203	    0.04973	 110.0	 1	    1.15000	    0.85000;
	3561	 1	 0.0	 0.0	 0.0	 0.0	 10	    0.97384	   -5.73183	 110.0	 1	    1.15000	    0.85000;
	3581	 1	 0.0	 0.0	 0.0	 0.0	 9	    0.94517	   -1.07792	 110.0	 1	    1.15000	    0.85000;
	3601	 1	 0.0	 0.0	 0.0	 0.0	 3	    1.06419	    2.04877	 110.0	 1	    1.15000	    0.85000;
	3611	 1	 0.0	 0.0	 0.0	 0.0	 3	    1.06423	    2.05213	 110.0	 1	    1.15000	    0.85000;
	3621	 1	 0.0	 0.0	 0.0	 0.0	 5	    1.01884	   -4.57231	 110.0	 1	    1.15000	    0.85000;
	3641	 1	 0.0	 0.0	 0.0	 0.0	 6	    1.02503	   -4.32339	 110.0	 1	    1.15000	    0.85000;
	3642	 1	 0.0	 0.0	 0.0	 0.0	 6	    1.02297	   -4.47354	 220.0	 1	    1.15000	    0.85000;
	3651	 1	 0.0	 0.0	 0.0	 0.0	 5	    1.02503	   -4.32309	 110.0	 1	    1.15000	    0.85000;
	3751	 1	 0.0	 0.0	 0.0	 0.0	 1	    1.00826	   -7.76513	 110.0	 1	    1.15000	    0.85000;
	3761	 1	 0.0	 0.0	 0.0	 0.0	 1	    0.99072	   -7.99202	 110.0	 1	    1.15000	    0.85000;
	3781	 1	 0.0	 0.0	 0.0	 0.0	 1	    1.00120	   -7.58217	 110.0	 1	    1.15000	    0.85000;
	3801	 1	 0.0	 0.0	 0.0	 0.0	 3	    1.06422	    2.06921	 110.0	 1	    1.15000	    0.85000;
	3821	 1	 0.0	 0.0	 0.0	 0.0	 10	    0.97910	   -5.60915	 110.0	 1	    1.15000	    0.85000;
	3841	 1	 0.0	 0.0	 0.0	 0.0	 2	    1.00210	   -7.30288	 110.0	 1	    1.15000	    0.85000;
	3842	 1	 0.0	 0.0	 0.0	 0.0	 2	    1.00335	   -6.92506	 220.0	 1	    1.15000	    0.85000;
	3851	 1	 0.0	 0.0	 0.0	 0.0	 2	    1.00036	   -7.85857	 110.0	 1	    1.15000	    0.85000;
	3852	 1	 0.0	 0.0	 0.0	 0.0	 2	    1.00420	   -6.94870	 220.0	 1	    1.15000	    0.85000;
	3861	 1	 0.0	 0.0	 0.0	 0.0	 1	    1.00854	   -7.75669	 110.0	 1	    1.15000	    0.85000;
	3871	 1	 0.0	 0.0	 0.0	 0.0	 1	    1.00606	   -7.25480	 110.0	 1	    1.15000	    0.85000;
	3881	 1	 0.0	 0.0	 0.0	 0.0	 3	    1.06584	    2.67366	 110.0	 1	    1.15000	    0.85000;
	3901	 1	 0.0	 0.0	 0.0	 0.0	 7	    1.05243	    0.49183	 110.0	 1	    1.15000	    0.85000;
	3934	 1	 0.0	 0.0	 0.0	 0.0	 4	    1.04605	   -7.44717	 380.0	 1	    1.15000	    0.85000;
	3941	 1	 0.0	 0.0	 0.0	 0.0	 4	    1.04567	   -0.83481	 110.0	 1	    1.15000	    0.85000;
	3942	 1	 0.0	 0.0	 0.0	 0.0	 4	    1.06262	    4.31476	 220.0	 1	    1.15000	    0.85000;
	3944	 1	 0.0	 0.0	 0.0	 0.0	 4	    1.04607	   -7.44752	 380.0	 1	    1.15000	    0.85000;
	3954	 1	 0.0	 0.0	 0.0	 0.0	 4	    1.05092	    7.19275	 380.0	 1	    1.15000	    0.85000;
	3961	 1	 0.0	 0.0	 0.0	 0.0	 3	    1.06427	    2.05619	 110.0	 1	    1.15000	    0.85000;
	3981	 1	 0.0	 0.0	 0.0	 0.0	 7	    1.05221	    0.47893	 110.0	 1	    1.15000	    0.85000;
	3991	 1	 0.0	 0.0	 0.0	 0.0	 7	    1.05222	    0.47954	 110.0	 1	    1.15000	    0.85000;
	4001	 1	 0.0	 0.0	 0.0	 0.0	 9	    1.00056	   -5.75629	 110.0	 1	    1.15000	    0.85000;
	4021	 1	 0.0	 0.0	 0.0	 0.0	 3	    1.05694	    0.86599	 110.0	 1	    1.15000	    0.85000;
	4041	 1	 0.0	 0.0	 0.0	 0.0	 9	    1.01420	   -3.45241	 110.0	 1	    1.15000	    0.85000;
	4061	 1	 0.0	 0.0	 0.0	 0.0	 10	    0.98186	   -5.43491	 110.0	 1	    1.15000	    0.85000;
	4071	 1	 0.0	 0.0	 0.0	 0.0	 9	    0.94663	   -1.45204	 110.0	 1	    1.15000	    0.85000;
	4081	 1	 0.0	 0.0	 0.0	 0.0	 8	    1.00576	   -6.95237	 110.0	 1	    1.15000	    0.85000;
	4101	 1	 0.0	 0.0	 0.0	 0.0	 1	    1.00209	   -8.17799	 110.0	 1	    1.15000	    0.85000;
...
];

%% generator data
%	bus	Pg	Qg	Qmax	Qmin	Vg	mBase	status	Pmax	Pmin	Pc1	Pc2	Qc1min	Qc1max	Qc2min	Qc2max	ramp_agc	ramp_10	ramp_30	ramp_q	apf
mpc.gen = [
	10271	 21.0	 0.0	 15.0	 -7.0	 1.05113	 34.0	 0	 21.0	 5.0	 0.0	 0.0	 0.0	 0.0	 0.0	 0.0	 0.0	 0.0	 0.0	 0.0	 0.0; % PEL
	10272	 22.0	 0.0	 15.0	 -7.0	 1.05113	 34.0	 0	 22.0	 5.0	 0.0	 0.0	 0.0	 0.0	 0.0	 0.0	 0.0	 0.0	 0.0	 0.0	 0.0; % PEL
	10273	 19.0	 0.0	 15.0	 -7.0	 1.05113	 34.0	 0	 19.0	 5.0	 0.0	 0.0	 0.0	 0.0	 0.0	 0.0	 0.0	 0.0	 0.0	 0.0	 0.0; % NG
	10274	 24.0	 0.0	 15.0	 -7.0	 1.05113	 34.0	 0	 24.0	 5.0	 0.0	 0.0	 0.0	 0.0	 0.0	 0.0	 0.0	 0.0	 0.0	 0.0	 0.0; % PEL
	10275	 0.0	 0.0	 0.0	 0.0	 1.05833	 8.35	 1	 7.5	 0.0	 0.0	 0.0	 0.0	 0.0	 0.0	 0.0	 0.0	 0.0	 0.0	 0.0	 0.0; % PEL
	10276	 0.0	 0.0	 0.0	 0.0	 1.05833	 0.85	 1	 0.66	 0.0	 0.0	 0.0	 0.0	 0.0	 0.0	 0.0	 0.0	 0.0	 0.0	 0.0	 0.0; % PEL
	10470	 222.0	 -49.849	 270.0	 -170.0	 1.08236	 500.0	 0	 443.0	 222.0	 0.0	 0.0	 0.0	 0.0	 0.0	 0.0	 0.0	 0.0	 0.0	 0.0	 0.0; % COW
	10471	 270.0	 0.0	 159.0	 -75.0	 1.06752	 318.8	 0	 270.0	 40.0	 0.0	 0.0	 0.0	 0.0	 0.0	 0.0	 0.0	 0.0	 0.0	 0.0	 0.0; % NG
	10472	 90.0	 0.0	 60.0	 -30.0	 1.07023	 100.9	 0	 90.0	 13.0	 0.0	 0.0	 0.0	 0.0	 0.0	 0.0	 0.0	 0.0	 0.0	 0.0	 0.0; % NG
	10473	 90.0	 0.0	 60.0	 -30.0	 1.07023	 100.9	 0	 90.0	 13.0	 0.0	 0.0	 0.0	 0.0	 0.0	 0.0	 0.0	 0.0	 0.0	 0.0	 0.0; % NG
	10474	 90.0	 0.0	 60.0	 -30.0	 1.0695	 100.9	 0	 90.0	 13.0	 0.0	 0.0	 0.0	 0.0	 0.0	 0.0	 0.0	 0.0	 0.0	 0.0	 0.0; % NG
	10671	 0.0	 -1.94	 -1.94	 -1.94	 1.00314	 4.8	 1	 4.8	 0.0	 0.0	 0.0	 0.0	 0.0	 0.0	 0.0	 0.0	 0.0	 0.0	 0.0	 0.0; % NG
	10672	 0.0	 -2.0	 -2.0	 -2.0	 1.00675	 6.0	 1	 5.0	 0.0	 0.0	 0.0	 0.0	 0.0	 0.0	 0.0	 0.0	 0.0	 0.0	 0.0	 0.0; % NG
	10673	 0.0	 -0.48	 -0.48	 -0.48	 1.00336	 1.2	 1	 1.2	 0.0	 0.0	 0.0	 0.0	 0.0	 0.0	 0.0	 0.0	 0.0	 0.0	 0.0	 0.0; % PEL
	10674	 1.38	 -1.77	 -1.77	 -2.3	 1.0233	 4.6	 0	 4.6	 0.0	 0.0	 0.0	 0.0	 0.0	 0.0	 0.0	 0.0	 0.0	 0.0	 0.0	 0.0; % PEL
	11204	 1.0	 0.0	 0.0	 0.0	 1.03828	 1.6	 0	 1.0	 0.0	 0.0	 0.0	 0.0	 0.0	 0.0	 0.0	 0.0	 0.0	 0.0	 0.0	 0.0; % PEL
	11271	 0.0	 0.0	 0.0	 0.0	 1.01296	 28.0	 1	 25.2	 0.0	 0.0	 0.0	 0.0	 0.0	 0.0	 0.0	 0.0	 0.0	 0.0	 0.0	 0.0; % NG
	12371	 31.5	 -0.666	 7.0	 -7.0	 1.02331	 32.0	 1	 31.5	 0.0	 0.0	 0.0	 0.0	 0.0	 0.0	 0.0	 0.0	 0.0	 0.0	 0.0	 0.0; % COW
	12372	 0.0	 0.0	 0.0	 0.0	 1.02406	 10.0	 1	 10.5	 0.0	 0.0	 0.0	 0.0	 0.0	 0.0	 0.0	 0.0	 0.0	 0.0	 0.0	 0.0; % NG
	12571	 0.0	 0.0	 0.0	 0.0	 1.04347	 25.05	 1	 19.45	 0.0	 0.0	 0.0	 0.0	 0.0	 0.0	 0.0	 0.0	 0.0	 0.0	 0.0	 0.0; % NG
	12572	 0.0	 0.006	 0.99	 -0.99	 1.04355	 3.34	 1	 3.0	 0.0	 0.0	 0.0	 0.0	 0.0	 0.0	 0.0	 0.0	 0.0	 0.0	 0.0	 0.0; % NG
	12573	 0.0	 0.016	 2.96	 -2.96	 1.04355	 10.02	 1	 9.0	 0.0	 0.0	 0.0	 0.0	 0.0	 0.0	 0.0	 0.0	 0.0	 0.0	 0.0	 0.0; % NG
	12872	 0.0	 -0.555	 0.0	 -2.76	 1.0598	 9.2	 1	 8.4	 0.0	 0.0	 0.0	 0.0	 0.0	 0.0	 0.0	 0.0	 0.0	 0.0	 0.0	 0.0; % NG
	12873	 0.0	 0.0	 0.0	 0.0	 1.06291	 20.7	 1	 19.55	 0.0	 0.0	 0.0	 0.0	 0.0	 0.0	 0.0	 0.0	 0.0	 0.0	 0.0	 0.0; % PEL
	12874	 0.0	 0.0	 0.0	 0.0	 1.07108	 8.5	 1	 8.5	 0.0	 0.0	 0.0	 0.0	 0.0	 0.0	 0.0	 0.0	 0.0	 0.0	 0.0	 0.0; % NG
	13434	 4.3	 0.0	 0.0	 0.0	 1.0012	 4.5	 0	 4.3	 0.0	 0.0	 0.0	 0.0	 0.0	 0.0	 0.0	 0.0	 0.0	 0.0	 0.0	 0.0; % NG
	13471	 0.0	 0.0	 0.0	 0.0	 0.9585	 0.66	 1	 0.66	 0.0	 0.0	 0.0	 0.0	 0.0	 0.0	 0.0	 0.0	 0.0	 0.0	 0.0	 0.0; % PEL
	13472	 0.0	 -0.0	 0.0	 -0.84	 0.94256	 2.7	 1	 2.55	 0.0	 0.0	 0.0	 0.0	 0.0	 0.0	 0.0	 0.0	 0.0	 0.0	 0.0	 0.0; % PEL
	13473	 0.0	 0.0	 0.0	 0.0	 0.9472	 10.0	 1	 10.0	 0.0	 0.0	 0.0	 0.0	 0.0	 0.0	 0.0	 0.0	 0.0	 0.0	 0.0	 0.0; % NG
	13475	 7.65	 0.0	 0.0	 0.0	 0.94819	 7.65	 1	 7.65	 0.0	 0.0	 0.0	 0.0	 0.0	 0.0	 0.0	 0.0	 0.0	 0.0	 0.0	 0.0; % NG
	13476	 0.0	 0.0	 0.0	 0.0	 0.94741	 11.5	 1	 11.9	 0.0	 0.0	 0.0	 0.0	 0.0	 0.0	 0.0	 0.0	 0.0	 0.0	 0.0	 0.0; % NG
	13477	 0.0	 0.0	 0.0	 0.0	 0.94738	 2.7	 1	 2.55	 0.0	 0.0	 0.0	 0.0	 0.0	 0.0	 0.0	 0.0	 0.0	 0.0	 0.0	 0.0; % PEL
	13479	 0.0	 0.0	 0.0	 0.0	 0.95506	 3.4	 1	 3.4	 0.0	 0.0	 0.0	 0.0	 0.0	 0.0	 0.0	 0.0	 0.0	 0.0	 0.0	 0.0; % PEL
	14073	 0.0	 -2.4	 -2.4	 -2.4	 1.01543	 7.611	 1	 6.45	 0.0	 0.0	 0.0	 0.0	 0.0	 0.0	 0.0	 0.0	 0.0	 0.0	 0.0	 0.0; % NG
	14471	 0.0	 0.0	 0.0	 0.0	 1.05874	 4.0	 1	 4.0	 0.0	 0.0	 0.0	 0.0	 0.0	 0.0	 0.0	 0.0	 0.0	 0.0	 0.0	 0.0; % NG
	14472	 0.0	 0.0	 0.0	 0.0	 1.05874	 0.85	 1	 0.85	 0.0	 0.0	 0.0	 0.0	 0.0	 0.0	 0.0	 0.0	 0.0	 0.0	 0.0	 0.0; % NG
	14604	 4.8	 0.0	 0.0	 0.0	 1.08932	 7.0	 0	 4.8	 0.0	 0.0	 0.0	 0.0	 0.0	 0.0	 0.0	 0.0	 0.0	 0.0	 0.0	 0.0; % NG
	14871	 0.0	 0.0	 0.0	 0.0	 1.03384	 4.6	 1	 1.7	 0.0	 0.0	 0.0	 0.0	 0.0	 0.0	 0.0	 0.0	 0.0	 0.0	 0.0	 0.0; % PEL
	15573	 0.0	 0.0	 0.0	 0.0	 1.08509	 23.0	 1	 20.0	 0.0	 0.0	 0.0	 0.0	 0.0	 0.0	 0.0	 0.0	 0.0	 0.0	 0.0	 0.0; % PEL
	15771	 0.0	 -0.3	 -0.3	 -0.3	 0.95312	 1.98	 1	 1.98	 0.0	 0.0	 0.0	 0.0	 0.0	 0.0	 0.0	 0.0	 0.0	 0.0	 0.0	 0.0; % PEL
	15772	 0.0	 -1.92	 -1.92	 -1.92	 0.92644	 3.0	 1	 3.0	 0.0	 0.0	 0.0	 0.0	 0.0	 0.0	 0.0	 0.0	 0.0	 0.0	 0.0	 0.0; % PEL
	16371	 0.0	 0.0	 0.0	 0.0	 1.04058	 3.4	 1	 3.4	 0.0	 0.0	 0.0	 0.0	 0.0	 0.0	 0.0	 0.0	 0.0	 0.0	 0.0	 0.0; % PEL
	16372	 0.0	 0.0	 0.0	 0.0	 1.04058	 3.4	 1	 3.4	 0.0	 0.0	 0.0	 0.0	 0.0	 0.0	 0.0	 0.0	 0.0	 0.0	 0.0	 0.0; % PEL
	16373	 0.0	 0.0	 0.0	 0.0	 1.04058	 6.8	 1	 6.8	 0.0	 0.0	 0.0	 0.0	 0.0	 0.0	 0.0	 0.0	 0.0	 0.0	 0.0	 0.0; % NG
	16374	 0.0	 0.0	 0.0	 0.0	 0.98662	 7.65	 1	 7.65	 0.0	 0.0	 0.0	 0.0	 0.0	 0.0	 0.0	 0.0	 0.0	 0.0	 0.0	 0.0; % NG
	16375	 0.0	 0.0	 0.0	 0.0	 0.98662	 4.25	 1	 3.96	 0.0	 0.0	 0.0	 0.0	 0.0	 0.0	 0.0	 0.0	 0.0	 0.0	 0.0	 0.0; % NG
	16376	 4.95	 0.0	 0.0	 0.0	 1.0408	 5.1	 1	 4.95	 0.0	 0.0	 0.0	 0.0	 0.0	 0.0	 0.0	 0.0	 0.0	 0.0	 0.0	 0.0; % NG
	16377	 0.0	 0.0	 0.0	 0.0	 0.98662	 9.2	 1	 9.0	 0.0	 0.0	 0.0	 0.0	 0.0	 0.0	 0.0	 0.0	 0.0	 0.0	 0.0	 0.0; % NG
	16379	 0.0	 0.0	 0.0	 0.0	 1.04058	 0.323	 1	 0.29	 0.0	 0.0	 0.0	 0.0	 0.0	 0.0	 0.0	 0.0	 0.0	 0.0	 0.0	 0.0; % PEL
	16571	 0.0	 0.0	 0.0	 0.0	 1.06084	 40.0	 1	 37.8	 0.0	 0.0	 0.0	 0.0	 0.0	 0.0	 0.0	 0.0	 0.0	 0.0	 0.0	 0.0; % PEL
	16670	 0.0	 -3.07	 0.0	 -3.07	 0.96143	 4.5	 1	 4.5	 0.0	 0.0	 0.0	 0.0	 0.0	 0.0	 0.0	 0.0	 0.0	 0.0	 0.0	 0.0; % NG
	16671	 0.0	 0.0	 0.0	 0.0	 1.01067	 3.4	 1	 3.4	 0.0	 0.0	 0.0	 0.0	 0.0	 0.0	 0.0	 0.0	 0.0	 0.0	 0.0	 0.0; % PEL
	16672	 0.0	 -0.56	 -0.56	 -0.56	 0.99494	 1.7	 1	 1.59	 0.0	 0.0	 0.0	 0.0	 0.0	 0.0	 0.0	 0.0	 0.0	 0.0	 0.0	 0.0; % PEL
	16674	 0.0	 0.0	 0.0	 0.0	 1.03809	 18.7	 1	 18.7	 0.0	 0.0	 0.0	 0.0	 0.0	 0.0	 0.0	 0.0	 0.0	 0.0	 0.0	 0.0; % NG
	16675	 0.0	 -2.65	 -2.65	 -2.65	 0.99382	 8.0	 1	 8.0	 0.0	 0.0	 0.0	 0.0	 0.0	 0.0	 0.0	 0.0	 0.0	 0.0	 0.0	 0.0; % NG
	16873	 8.0	 0.0	 7.0	 -1.0	 1.06548	 11.5	 0	 8.0	 2.0	 0.0	 0.0	 0.0	 0.0	 0.0	 0.0	 0.0	 0.0	 0.0	 0.0	 0.0; % NG
	17073	 22.5	 0.0	 15.0	 -5.0	 0.95535	 30.0	 0	 22.5	 5.0	 0.0	 0.0	 0.0	 0.0	 0.0	 0.0	 0.0	 0.0	 0.0	 0.0	 0.0; % PEL
	17074	 22.5	 0.0	 23.0	 -25.0	 0.95537	 35.5	 0	 22.5	 5.0	 0.0	 0.0	 0.0	 0.0	 0.0	 0.0	 0.0	 0.0	 0.0	 0.0	 0.0; % COW
	17075	 0.0	 -0.8	 -0.8	 -0.8	 0.93711	 1.98	 1	 1.98	 0.0	 0.0	 0.0	 0.0	 0.0	 0.0	 0.0	 0.0	 0.0	 0.0	 0.0	 0.0; % PEL
	17077	 0.0	 0.0	 0.0	 0.0	 0.95506	 1.2	 1	 0.02	 0.0	 0.0	 0.0	 0.0	 0.0	 0.0	 0.0	 0.0	 0.0	 0.0	 0.0	 0.0; % PEL
	17671	 10.0	 0.0	 7.0	 -3.0	 0.95537	 12.5	 0	 10.0	 3.0	 0.0	 0.0	 0.0	 0.0	 0.0	 0.0	 0.0	 0.0	 0.0	 0.0	 0.0; % NG
	17672	 10.0	 0.0	 7.0	 -3.0	 0.95537	 12.5	 0	 10.0	 3.0	 0.0	 0.0	 0.0	 0.0	 0.0	 0.0	 0.0	 0.0	 0.0	 0.0	 0.0; % NG
	18471	 0.0	 0.0	 0.0	 0.0	 1.02508	 5.2	 1	 4.99	 0.0	 0.0	 0.0	 0.0	 0.0	 0.0	 0.0	 0.0	 0.0	 0.0	 0.0	 0.0; % NG
	19081	 0.0	 0.0	 0.0	 0.0	 1.02573	 2.55	 1	 2.55	 0.0	 0.0	 0.0	 0.0	 0.0	 0.0	 0.0	 0.0	 0.0	 0.0	 0.0	 0.0; % PEL
	19082	 0.0	 0.0	 0.0	 0.0	 1.02573	 1.7	 1	 1.7	 0.0	 0.0	 0.0	 0.0	 0.0	 0.0	 0.0	 0.0	 0.0	 0.0	 0.0	 0.0; % PEL
	19083	 4.99	 0.0	 0.0	 0.0	 1.02976	 6.9	 1	 4.99	 0.0	 0.0	 0.0	 0.0	 0.0	 0.0	 0.0	 0.0	 0.0	 0.0	 0.0	 0.0; % NG
	19084	 0.0	 -1.5	 -1.5	 -1.5	 1.00787	 4.6	 1	 4.5	 0.0	 0.0	 0.0	 0.0	 0.0	 0.0	 0.0	 0.0	 0.0	 0.0	 0.0	 0.0; % NG
	19085	 0.0	 -7.0	 -7.0	 -7.0	 1.00403	 23.824	 1	 21.0	 0.0	 0.0	 0.0	 0.0	 0.0	 0.0	 0.0	 0.0	 0.0	 0.0	 0.0	 0.0; % NG
	19317	 0.0	 -1.18	 6.0	 -6.0	 1.00596	 6.0	 1	 0.0	 0.0	 0.0	 0.0	 0.0	 0.0	 0.0	 0.0	 0.0	 0.0	 0.0	 0.0	 0.0; % SYNC
	19371	 0.0	 0.0	 0.0	 0.0	 1.02131	 29.78	 1	 23.75	 0.0	 0.0	 0.0	 0.0	 0.0	 0.0	 0.0	 0.0	 0.0	 0.0	 0.0	 0.0; % NG
	19372	 0.0	 0.0	 0.0	 0.0	 1.01566	 11.05	 1	 11.05	 0.0	 0.0	 0.0	 0.0	 0.0	 0.0	 0.0	 0.0	 0.0	 0.0	 0.0	 0.0; % NG
	19471	 60.0	 5.2	 94.0	 -50.0	 1.04294	 153.0	 1	 133.5	 60.0	 0.0	 0.0	 0.0	 0.0	 0.0	 0.0	 0.0	 0.0	 0.0	 0.0	 0.0; % NG
	19472	 58.274	 0.0	 38.0	 -23.0	 1.02616	 66.625	 0	 58.274	 19.7	 0.0	 0.0	 0.0	 0.0	 0.0	 0.0	 0.0	 0.0	 0.0	 0.0	 0.0; % PEL
	19473	 58.274	 0.0	 40.0	 -23.0	 1.02616	 66.625	 0	 58.274	 19.7	 0.0	 0.0	 0.0	 0.0	 0.0	 0.0	 0.0	 0.0	 0.0	 0.0	 0.0; % PEL
	19601	 0.0	 0.0	 0.0	 0.0	 1.09893	 6.5	 1	 5.85	 0.0	 0.0	 0.0	 0.0	 0.0	 0.0	 0.0	 0.0	 0.0	 0.0	 0.0	 0.0; % COW
	19771	 0.0	 0.0	 0.0	 0.0	 1.07619	 46.875	 1	 42.5	 0.0	 0.0	 0.0	 0.0	 0.0	 0.0	 0.0	 0.0	 0.0	 0.0	 0.0	 0.0; % NG
	19772	 8.5	 -0.608	 2.79	 -2.79	 1.06979	 8.5	 1	 8.5	 0.0	 0.0	 0.0	 0.0	 0.0	 0.0	 0.0	 0.0	 0.0	 0.0	 0.0	 0.0; % NG
	19773	 0.0	 -1.004	 9.86	 -9.86	 1.07066	 38.714	 1	 30.0	 0.0	 0.0	 0.0	 0.0	 0.0	 0.0	 0.0	 0.0	 0.0	 0.0	 0.0	 0.0; % NG
	19971	 0.0	 -1.16	 6.7	 -6.7	 1.01962	 20.7	 1	 20.0	 0.0	 0.0	 0.0	 0.0	 0.0	 0.0	 0.0	 0.0	 0.0	 0.0	 0.0	 0.0; % PEL
	19972	 0.0	 0.0	 0.0	 0.0	 1.02265	 2.3	 1	 2.3	 0.0	 0.0	 0.0	 0.0	 0.0	 0.0	 0.0	 0.0	 0.0	 0.0	 0.0	 0.0; % PEL
	19973	 0.0	 0.0	 0.0	 0.0	 1.02265	 2.3	 1	 2.3	 0.0	 0.0	 0.0	 0.0	 0.0	 0.0	 0.0	 0.0	 0.0	 0.0	 0.0	 0.0; % PEL
	19974	 0.0	 -0.24	 4.0	 -4.0	 1.02185	 16.1	 1	 16.1	 0.0	 0.0	 0.0	 0.0	 0.0	 0.0	 0.0	 0.0	 0.0	 0.0	 0.0	 0.0; % NG
	21071	 0.0	 0.0	 0.0	 0.0	 0.99635	 0.85	 1	 0.5	 0.0	 0.0	 0.0	 0.0	 0.0	 0.0	 0.0	 0.0	 0.0	 0.0	 0.0	 0.0; % PEL
	21371	 0.0	 -4.25	 9.5	 -9.5	 1.13429	 31.73	 1	 28.5	 0.0	 0.0	 0.0	 0.0	 0.0	 0.0	 0.0	 0.0	 0.0	 0.0	 0.0	 0.0; % COW
	21871	 0.0	 0.0	 0.0	 0.0	 0.95054	 1.7	 1	 1.7	 0.0	 0.0	 0.0	 0.0	 0.0	 0.0	 0.0	 0.0	 0.0	 0.0	 0.0	 0.0; % PEL
	21872	 0.0	 -0.99	 -0.99	 -1.28	 0.92923	 2.7	 1	 2.5	 0.0	 0.0	 0.0	 0.0	 0.0	 0.0	 0.0	 0.0	 0.0	 0.0	 0.0	 0.0; % PEL
	22273	 0.0	 -0.0	 0.0	 -1.48	 1.08723	 4.0	 1	 4.5	 0.0	 0.0	 0.0	 0.0	 0.0	 0.0	 0.0	 0.0	 0.0	 0.0	 0.0	 0.0; % NG
	22274	 0.0	 -2.4	 -2.4	 -2.4	 1.06404	 5.94	 1	 5.94	 0.0	 0.0	 0.0	 0.0	 0.0	 0.0	 0.0	 0.0	 0.0	 0.0	 0.0	 0.0; % NG
	22275	 2.997	 0.0	 0.0	 0.0	 1.12435	 4.25	 1	 4.25	 0.0	 0.0	 0.0	 0.0	 0.0	 0.0	 0.0	 0.0	 0.0	 0.0	 0.0	 0.0; % NG
	22276	 0.0	 0.0	 0.0	 0.0	 1.08162	 6.68	 1	 5.95	 0.0	 0.0	 0.0	 0.0	 0.0	 0.0	 0.0	 0.0	 0.0	 0.0	 0.0	 0.0; % NG
	22278	 0.0	 -1.0	 -1.0	 -1.0	 1.06371	 4.62	 1	 4.62	 0.0	 0.0	 0.0	 0.0	 0.0	 0.0	 0.0	 0.0	 0.0	 0.0	 0.0	 0.0; % NG
	22292	 6.0	 0.0	 0.0	 0.0	 1.08127	 6.0	 0	 6.0	 0.0	 0.0	 0.0	 0.0	 0.0	 0.0	 0.0	 0.0	 0.0	 0.0	 0.0	 0.0; % PEL
	22371	 0.0	 0.0	 0.0	 0.0	 1.03606	 59.5	 1	 59.5	 0.0	 0.0	 0.0	 0.0	 0.0	 0.0	 0.0	 0.0	 0.0	 0.0	 0.0	 0.0; % PEL
	22471	 0.0	 0.0	 0.0	 0.0	 1.04402	 2.55	 1	 2.55	 0.0	 0.0	 0.0	 0.0	 0.0	 0.0	 0.0	 0.0	 0.0	 0.0	 0.0	 0.0; % PEL
	22472	 0.0	 0.0	 0.0	 0.0	 1.04402	 4.25	 1	 4.25	 0.0	 0.0	 0.0	 0.0	 0.0	 0.0	 0.0	 0.0	 0.0	 0.0	 0.0	 0.0; % PEL
	22671	 52.1	 0.0	 32.6	 -22.7	 0.99458	 62.0	 0	 52.1	 1.2	 0.0	 0.0	 0.0	 0.0	 0.0	 0.0	 0.0	 0.0	 0.0	 0.0	 0.0; % COW
	22672	 52.1	 0.0	 32.6	 -22.7	 0.98056	 62.0	 0	 52.1	 1.2	 0.0	 0.0	 0.0	 0.0	 0.0	 0.0	 0.0	 0.0	 0.0	 0.0	 0.0; % NG
	22871	 0.0	 -1.09	 -0.84	 -1.09	 0.98172	 2.4	 1	 2.4	 0.0	 0.0	 0.0	 0.0	 0.0	 0.0	 0.0	 0.0	 0.0	 0.0	 0.0	 0.0; % PEL
	26771	 0.0	 -2.909	 10.0	 -10.0	 0.99449	 26.0	 1	 26.0	 0.0	 0.0	 0.0	 0.0	 0.0	 0.0	 0.0	 0.0	 0.0	 0.0	 0.0	 0.0; % NG
	26772	 6.0	 0.0	 0.0	 0.0	 1.00195	 6.0	 1	 6.0	 6.0	 0.0	 0.0	 0.0	 0.0	 0.0	 0.0	 0.0	 0.0	 0.0	 0.0	 0.0; % NG
	26773	 0.0	 -5.85	 10.0	 -10.0	 0.98199	 22.0	 1	 22.0	 0.0	 0.0	 0.0	 0.0	 0.0	 0.0	 0.0	 0.0	 0.0	 0.0	 0.0	 0.0; % PEL
	26774	 6.0	 0.0	 0.0	 0.0	 1.00084	 6.0	 1	 6.0	 6.0	 0.0	 0.0	 0.0	 0.0	 0.0	 0.0	 0.0	 0.0	 0.0	 0.0	 0.0; % NG
	27071	 0.0	 0.0	 0.0	 0.0	 0.97613	 0.8	 1	 0.8	 0.0	 0.0	 0.0	 0.0	 0.0	 0.0	 0.0	 0.0	 0.0	 0.0	 0.0	 0.0; % NG
	27204	 4.0	 0.0	 1.0	 -1.0	 1.03759	 5.0	 0	 4.0	 0.0	 0.0	 0.0	 0.0	 0.0	 0.0	 0.0	 0.0	 0.0	 0.0	 0.0	 0.0; % NG
	27361	 0.0	 0.426	 12.3	 -12.3	 1.09107	 12.3	 1	 0.0	 0.0	 0.0	 0.0	 0.0	 0.0	 0.0	 0.0	 0.0	 0.0	 0.0	 0.0	 0.0; % SYNC
	27371	 12.8	 0.0	 0.0	 0.0	 1.09191	 14.45	 1	 12.8	 0.0	 0.0	 0.0	 0.0	 0.0	 0.0	 0.0	 0.0	 0.0	 0.0	 0.0	 0.0; % COW
	27372	 0.0	 0.0	 0.0	 0.0	 1.09107	 18.75	 1	 17.0	 0.0	 0.0	 0.0	 0.0	 0.0	 0.0	 0.0	 0.0	 0.0	 0.0	 0.0	 0.0; % PEL
	27471	 57.0	 0.0	 42.0	 -3.0	 1.02764	 75.0	 0	 57.0	 25.0	 0.0	 0.0	 0.0	 0.0	 0.0	 0.0	 0.0	 0.0	 0.0	 0.0	 0.0; % NG
	27472	 51.8	 0.0	 40.0	 -3.0	 1.02777	 75.0	 0	 51.8	 25.0	 0.0	 0.0	 0.0	 0.0	 0.0	 0.0	 0.0	 0.0	 0.0	 0.0	 0.0; % PEL
	27473	 121.0	 0.0	 82.0	 -48.0	 1.00931	 150.0	 0	 121.0	 30.0	 0.0	 0.0	 0.0	 0.0	 0.0	 0.0	 0.0	 0.0	 0.0	 0.0	 0.0; % NG
	27771	 19.589	 1.081	 13.0	 -13.61	 1.10614	 41.4	 1	 41.225	 0.0	 0.0	 0.0	 0.0	 0.0	 0.0	 0.0	 0.0	 0.0	 0.0	 0.0	 0.0; % NG
	27772	 0.0	 -2.0	 -2.0	 -2.0	 1.12777	 11.912	 1	 10.0	 0.0	 0.0	 0.0	 0.0	 0.0	 0.0	 0.0	 0.0	 0.0	 0.0	 0.0	 0.0; % NG
	27773	 0.0	 -1.0	 -1.0	 -1.0	 1.12633	 4.6	 1	 5.0	 0.0	 0.0	 0.0	 0.0	 0.0	 0.0	 0.0	 0.0	 0.0	 0.0	 0.0	 0.0; % NG
	27774	 18.0	 -3.0	 -3.0	 -3.0	 1.07074	 18.4	 1	 18.0	 0.0	 0.0	 0.0	 0.0	 0.0	 0.0	 0.0	 0.0	 0.0	 0.0	 0.0	 0.0; % NG
	27871	 0.0	 -0.7	 -0.7	 -0.7	 1.00219	 3.3	 1	 3.3	 0.0	 0.0	 0.0	 0.0	 0.0	 0.0	 0.0	 0.0	 0.0	 0.0	 0.0	 0.0; % NG
	28071	 0.0	 -6.0	 -6.0	 -6.0	 0.91333	 15.0	 1	 15.0	 0.0	 0.0	 0.0	 0.0	 0.0	 0.0	 0.0	 0.0	 0.0	 0.0	 0.0	 0.0; % NG
	28271	 0.0	 -1.2	 -1.2	 -1.2	 0.9247	 3.34	 1	 3.0	 0.0	 0.0	 0.0	 0.0	 0.0	 0.0	 0.0	 0.0	 0.0	 0.0	 0.0	 0.0; % PEL
	28571	 450.5	 2.775	 282.1	 -190.0	 1.10839	 535.5	 1	 450.5	 110.1	 0.0	 0.0	 0.0	 0.0	 0.0	 0.0	 0.0	 0.0	 0.0	 0.0	 0.0; % COW
	28872	 0.0	 0.0	 0.0	 0.0	 1.12737	 13.8	 1	 10.5	 0.0	 0.0	 0.0	 0.0	 0.0	 0.0	 0.0	 0.0	 0.0	 0.0	 0.0	 0.0; % PEL
	28873	 0.0	 -3.653	 5.42	 -5.42	 1.11849	 18.4	 1	 16.5	 0.0	 0.0	 0.0	 0.0	 0.0	 0.0	 0.0	 0.0	 0.0	 0.0	 0.0	 0.0; % NG
	28874	 0.0	 0.0	 0.0	 0.0	 1.05819	 27.6	 1	 26.0	 0.0	 0.0	 0.0	 0.0	 0.0	 0.0	 0.0	 0.0	 0.0	 0.0	 0.0	 0.0; % PEL
	29671	 123.0	 0.0	 107.0	 -53.0	 0.96613	 150.0	 0	 123.0	 40.0	 0.0	 0.0	 0.0	 0.0	 0.0	 0.0	 0.0	 0.0	 0.0	 0.0	 0.0; % NG
	29672	 236.2	 -86.999	 181.0	 -87.0	 0.91532	 288.0	 1	 236.2	 138.0	 0.0	 0.0	 0.0	 0.0	 0.0	 0.0	 0.0	 0.0	 0.0	 0.0	 0.0; % COW
	29673	 400.0	 -170.0	 255.0	 -170.0	 0.97342	 473.0	 0	 400.0	 194.0	 0.0	 0.0	 0.0	 0.0	 0.0	 0.0	 0.0	 0.0	 0.0	 0.0	 0.0; % NG
	30671	 15.0	 0.0	 13.0	 -4.0	 1.06342	 21.4	 0	 15.0	 4.0	 0.0	 0.0	 0.0	 0.0	 0.0	 0.0	 0.0	 0.0	 0.0	 0.0	 0.0; % NG
	30671	 4.0	 0.0	 3.0	 -1.0	 1.06342	 5.7	 0	 4.0	 1.0	 0.0	 0.0	 0.0	 0.0	 0.0	 0.0	 0.0	 0.0	 0.0	 0.0	 0.0; % NG
	31071	 0.0	 0.0	 0.0	 0.0	 1.03727	 2.55	 1	 2.55	 0.0	 0.0	 0.0	 0.0	 0.0	 0.0	 0.0	 0.0	 0.0	 0.0	 0.0	 0.0; % PEL
	31074	 0.0	 0.0	 0.0	 0.0	 1.03727	 2.55	 1	 2.55	 0.0	 0.0	 0.0	 0.0	 0.0	 0.0	 0.0	 0.0	 0.0	 0.0	 0.0	 0.0; % PEL
	31271	 163.0	 -27.402	 295.0	 -100.0	 1.02472	 500.0	 1	 409.9	 163.0	 0.0	 0.0	 0.0	 0.0	 0.0	 0.0	 0.0	 0.0	 0.0	 0.0	 0.0; % NG
	32404	 4.26	 0.999	 1.0	 -1.0	 1.04827	 4.8	 1	 4.26	 0.0	 0.0	 0.0	 0.0	 0.0	 0.0	 0.0	 0.0	 0.0	 0.0	 0.0	 0.0; % NG
	32576	 0.0	 -0.002	 0.0	 -5.03	 1.10714	 11.2	 1	 11.2	 0.0	 0.0	 0.0	 0.0	 0.0	 0.0	 0.0	 0.0	 0.0	 0.0	 0.0	 0.0; % NG
	32577	 0.0	 -0.003	 0.0	 -5.03	 1.10712	 3.6	 1	 3.6	 0.0	 0.0	 0.0	 0.0	 0.0	 0.0	 0.0	 0.0	 0.0	 0.0	 0.0	 0.0; % NG
	32578	 1.25	 0.0	 0.0	 0.0	 1.10715	 1.25	 0	 1.25	 0.0	 0.0	 0.0	 0.0	 0.0	 0.0	 0.0	 0.0	 0.0	 0.0	 0.0	 0.0; % PEL
	32604	 7.5	 0.0	 1.0	 -1.0	 1.06401	 8.5	 0	 7.5	 2.0	 0.0	 0.0	 0.0	 0.0	 0.0	 0.0	 0.0	 0.0	 0.0	 0.0	 0.0; % COW
	32604	 0.18	 0.0	 0.0	 0.0	 1.06401	 0.2	 0	 0.18	 0.0	 0.0	 0.0	 0.0	 0.0	 0.0	 0.0	 0.0	 0.0	 0.0	 0.0	 0.0; % PEL
	33071	 0.0	 -0.025	 0.0	 -1.48	 1.10381	 4.0	 1	 4.5	 0.0	 0.0	 0.0	 0.0	 0.0	 0.0	 0.0	 0.0	 0.0	 0.0	 0.0	 0.0; % PEL
	33072	 9.35	 0.0	 0.0	 0.0	 1.10489	 9.35	 1	 9.35	 0.0	 0.0	 0.0	 0.0	 0.0	 0.0	 0.0	 0.0	 0.0	 0.0	 0.0	 0.0; % COW
	35071	 0.0	 -1.64	 -1.64	 -2.13	 1.0051	 4.6	 1	 4.6	 0.0	 0.0	 0.0	 0.0	 0.0	 0.0	 0.0	 0.0	 0.0	 0.0	 0.0	 0.0; % PEL
	35074	 70.0	 0.088	 60.0	 -39.0	 1.03781	 121.1	 1	 103.3	 70.0	 0.0	 0.0	 0.0	 0.0	 0.0	 0.0	 0.0	 0.0	 0.0	 0.0	 0.0; % NG
	35871	 0.0	 0.0	 0.0	 0.0	 0.93014	 2.55	 1	 2.55	 0.0	 0.0	 0.0	 0.0	 0.0	 0.0	 0.0	 0.0	 0.0	 0.0	 0.0	 0.0; % COW
	35872	 0.0	 0.0	 0.0	 0.0	 0.93014	 2.55	 1	 2.45	 0.0	 0.0	 0.0	 0.0	 0.0	 0.0	 0.0	 0.0	 0.0	 0.0	 0.0	 0.0; % PEL
	35873	 0.0	 0.0	 0.0	 0.0	 0.93014	 3.2	 1	 3.2	 0.0	 0.0	 0.0	 0.0	 0.0	 0.0	 0.0	 0.0	 0.0	 0.0	 0.0	 0.0; % NG
	35875	 15.0	 -6.0	 -6.0	 -6.0	 0.86476	 17.7	 1	 15.0	 0.0	 0.0	 0.0	 0.0	 0.0	 0.0	 0.0	 0.0	 0.0	 0.0	 0.0	 0.0; % COW
	35876	 0.0	 -4.8	 -4.8	 -4.8	 0.90649	 11.88	 1	 11.88	 0.0	 0.0	 0.0	 0.0	 0.0	 0.0	 0.0	 0.0	 0.0	 0.0	 0.0	 0.0; % NG
	35877	 0.0	 0.0	 0.0	 0.0	 0.93646	 5.4	 1	 4.99	 0.0	 0.0	 0.0	 0.0	 0.0	 0.0	 0.0	 0.0	 0.0	 0.0	 0.0	 0.0; % NG
	36271	 0.0	 6.875	 12.0	 -12.0	 1.02692	 36.0	 1	 36.0	 0.0	 0.0	 0.0	 0.0	 0.0	 0.0	 0.0	 0.0	 0.0	 0.0	 0.0	 0.0; % PEL
	36272	 0.0	 3.433	 7.5	 -75.0	 1.02554	 20.0	 1	 19.0	 0.0	 0.0	 0.0	 0.0	 0.0	 0.0	 0.0	 0.0	 0.0	 0.0	 0.0	 0.0; % PEL
	36471	 0.0	 0.0	 0.0	 0.0	 1.00797	 15.0	 1	 14.45	 0.0	 0.0	 0.0	 0.0	 0.0	 0.0	 0.0	 0.0	 0.0	 0.0	 0.0	 0.0; % NG
	36472	 0.0	 -1.31	 -1.31	 -1.7	 0.98651	 4.6	 1	 4.0	 0.0	 0.0	 0.0	 0.0	 0.0	 0.0	 0.0	 0.0	 0.0	 0.0	 0.0	 0.0; % NG
	36473	 0.0	 0.0	 0.0	 0.0	 1.00429	 4.6	 1	 4.6	 0.0	 0.0	 0.0	 0.0	 0.0	 0.0	 0.0	 0.0	 0.0	 0.0	 0.0	 0.0; % PEL
	36474	 3.6	 -1.18	 -1.18	 -1.53	 0.98645	 4.0	 1	 3.6	 0.0	 0.0	 0.0	 0.0	 0.0	 0.0	 0.0	 0.0	 0.0	 0.0	 0.0	 0.0; % NG
	36475	 0.0	 -1.2	 -1.2	 -1.2	 0.99252	 4.6	 1	 4.0	 0.0	 0.0	 0.0	 0.0	 0.0	 0.0	 0.0	 0.0	 0.0	 0.0	 0.0	 0.0; % PEL
	36476	 1.878	 -0.406	 4.0	 -4.0	 1.00961	 17.868	 1	 14.8	 0.0	 0.0	 0.0	 0.0	 0.0	 0.0	 0.0	 0.0	 0.0	 0.0	 0.0	 0.0; % NG
	38071	 0.0	 -0.56	 -0.56	 -0.56	 1.08873	 1.6	 1	 1.6	 0.0	 0.0	 0.0	 0.0	 0.0	 0.0	 0.0	 0.0	 0.0	 0.0	 0.0	 0.0; % PEL
	38244	 1.0	 0.0	 0.0	 0.0	 1.01795	 6.5	 0	 1.0	 0.0	 0.0	 0.0	 0.0	 0.0	 0.0	 0.0	 0.0	 0.0	 0.0	 0.0	 0.0; % PEL
	38271	 0.0	 0.0	 0.0	 0.0	 0.95787	 11.69	 1	 10.5	 0.0	 0.0	 0.0	 0.0	 0.0	 0.0	 0.0	 0.0	 0.0	 0.0	 0.0	 0.0; % NG
	38272	 4.5	 0.0	 0.0	 0.0	 0.95707	 5.01	 1	 4.5	 0.0	 0.0	 0.0	 0.0	 0.0	 0.0	 0.0	 0.0	 0.0	 0.0	 0.0	 0.0; % NG
	38273	 0.0	 0.0	 0.0	 0.0	 0.94736	 8.35	 1	 7.5	 0.0	 0.0	 0.0	 0.0	 0.0	 0.0	 0.0	 0.0	 0.0	 0.0	 0.0	 0.0; % NG
	38870	 20.169	 0.0	 0.0	 0.0	 1.08651	 25.3	 1	 25.3	 0.0	 0.0	 0.0	 0.0	 0.0	 0.0	 0.0	 0.0	 0.0	 0.0	 0.0	 0.0; % NG
	38871	 0.0	 -0.0	 0.0	 -2.88	 1.08206	 10.0	 1	 8.75	 0.0	 0.0	 0.0	 0.0	 0.0	 0.0	 0.0	 0.0	 0.0	 0.0	 0.0	 0.0; % NG
	39471	 302.0	 -54.306	 176.0	 -112.0	 0.9779	 359.0	 0	 302.0	 99.0	 0.0	 0.0	 0.0	 0.0	 0.0	 0.0	 0.0	 0.0	 0.0	 0.0	 0.0; % NG
	39472	 303.0	 62.586	 176.0	 -112.0	 1.07127	 359.0	 1	 303.0	 99.0	 0.0	 0.0	 0.0	 0.0	 0.0	 0.0	 0.0	 0.0	 0.0	 0.0	 0.0; % NG
	39473	 302.0	 0.0	 176.0	 -112.0	 0.97667	 359.0	 0	 302.0	 99.0	 0.0	 0.0	 0.0	 0.0	 0.0	 0.0	 0.0	 0.0	 0.0	 0.0	 0.0; % NG
	39675	 90.0	 0.0	 60.0	 -19.0	 1.06232	 100.9	 0	 90.0	 60.0	 0.0	 0.0	 0.0	 0.0	 0.0	 0.0	 0.0	 0.0	 0.0	 0.0	 0.0; % NG
	40471	 0.0	 0.0	 0.0	 0.0	 1.02163	 6.9	 1	 6.0	 0.0	 0.0	 0.0	 0.0	 0.0	 0.0	 0.0	 0.0	 0.0	 0.0	 0.0	 0.0; % PEL
	40771	 0.0	 0.0	 0.0	 0.0	 0.93127	 52.9	 1	 52.9	 0.0	 0.0	 0.0	 0.0	 0.0	 0.0	 0.0	 0.0	 0.0	 0.0	 0.0	 0.0; % NG
	40772	 0.0	 0.0	 0.0	 0.0	 0.93127	 19.5	 1	 18.06	 0.0	 0.0	 0.0	 0.0	 0.0	 0.0	 0.0	 0.0	 0.0	 0.0	 0.0	 0.0; % PEL
	40773	 0.0	 0.0	 0.0	 0.0	 0.93127	 16.1	 1	 14.0	 0.0	 0.0	 0.0	 0.0	 0.0	 0.0	 0.0	 0.0	 0.0	 0.0	 0.0	 0.0; % NG
	42404	 15.0	 0.0	 5.0	 0.0	 1.01972	 20.0	 0	 15.0	 6.0	 0.0	 0.0	 0.0	 0.0	 0.0	 0.0	 0.0	 0.0	 0.0	 0.0	 0.0; % NG
	42404	 15.0	 0.0	 5.0	 0.0	 1.01972	 20.0	 0	 15.0	 6.0	 0.0	 0.0	 0.0	 0.0	 0.0	 0.0	 0.0	 0.0	 0.0	 0.0	 0.0; % PEL
	42404	 15.0	 0.0	 5.0	 0.0	 1.01972	 20.0	 0	 15.0	 6.0	 0.0	 0.0	 0.0	 0.0	 0.0	 0.0	 0.0	 0.0	 0.0	 0.0	 0.0; % NG
	42474	 118.0	 0.0	 55.0	 -20.0	 1.00039	 132.1	 0	 118.0	 40.0	 0.0	 0.0	 0.0	 0.0	 0.0	 0.0	 0.0	 0.0	 0.0	 0.0	 0.0; % NG
	42475	 109.5	 0.0	 55.0	 -20.0	 1.00039	 132.1	 0	 109.5	 20.0	 0.0	 0.0	 0.0	 0.0	 0.0	 0.0	 0.0	 0.0	 0.0	 0.0	 0.0; % COW
	42672	 0.0	 -0.83	 -0.83	 -1.07	 1.06614	 2.55	 1	 2.44	 0.0	 0.0	 0.0	 0.0	 0.0	 0.0	 0.0	 0.0	 0.0	 0.0	 0.0	 0.0; % PEL
	42673	 3.9	 -1.3	 -1.3	 -1.3	 1.07079	 4.6	 1	 3.9	 0.0	 0.0	 0.0	 0.0	 0.0	 0.0	 0.0	 0.0	 0.0	 0.0	 0.0	 0.0; % NG
	42674	 0.0	 0.0	 0.0	 0.0	 1.08065	 2.55	 1	 2.55	 0.0	 0.0	 0.0	 0.0	 0.0	 0.0	 0.0	 0.0	 0.0	 0.0	 0.0	 0.0; % PEL
	43671	 0.0	 0.0	 0.0	 0.0	 1.07488	 6.9	 1	 6.9	 0.0	 0.0	 0.0	 0.0	 0.0	 0.0	 0.0	 0.0	 0.0	 0.0	 0.0	 0.0; % PEL
	43672	 0.0	 0.0	 0.0	 0.0	 1.07488	 2.3	 1	 2.3	 0.0	 0.0	 0.0	 0.0	 0.0	 0.0	 0.0	 0.0	 0.0	 0.0	 0.0	 0.0; % PEL
	43774	 34.15	 3.324	 10.0	 -10.0	 1.09549	 36.8	 1	 34.15	 0.0	 0.0	 0.0	 0.0	 0.0	 0.0	 0.0	 0.0	 0.0	 0.0	 0.0	 0.0; % COW
	44471	 15.0	 0.0	 9.0	 -10.0	 1.01325	 18.8	 0	 15.0	 5.0	 0.0	 0.0	 0.0	 0.0	 0.0	 0.0	 0.0	 0.0	 0.0	 0.0	 0.0; % COW
	44471	 15.0	 0.0	 9.0	 -10.0	 1.01325	 18.8	 0	 15.0	 5.0	 0.0	 0.0	 0.0	 0.0	 0.0	 0.0	 0.0	 0.0	 0.0	 0.0	 0.0; % NG
	44471	 4.0	 0.0	 3.0	 -1.0	 1.01325	 5.0	 0	 4.0	 1.0	 0.0	 0.0	 0.0	 0.0	 0.0	 0.0	 0.0	 0.0	 0.0	 0.0	 0.0; % COW
	46801	 6.5	 0.0	 0.0	 0.0	 1.09969	 6.75	 0	 6.5	 2.0	 0.0	 0.0	 0.0	 0.0	 0.0	 0.0	 0.0	 0.0	 0.0	 0.0	 0.0; % NG
	46854	 3.2	 0.0	 0.0	 0.0	 1.06868	 3.2	 0	 3.2	 3.2	 0.0	 0.0	 0.0	 0.0	 0.0	 0.0	 0.0	 0.0	 0.0	 0.0	 0.0; % NG
	46870	 0.0	 -1.0	 -1.0	 -1.0	 1.04806	 4.6	 1	 2.5	 0.0	 0.0	 0.0	 0.0	 0.0	 0.0	 0.0	 0.0	 0.0	 0.0	 0.0	 0.0; % PEL
	46873	 0.0	 0.0	 0.0	 0.0	 1.0429	 15.0	 1	 12.5	 0.0	 0.0	 0.0	 0.0	 0.0	 0.0	 0.0	 0.0	 0.0	 0.0	 0.0	 0.0; % PEL
	46874	 0.0	 -5.0	 -5.0	 -5.0	 1.03782	 17.868	 1	 15.0	 0.0	 0.0	 0.0	 0.0	 0.0	 0.0	 0.0	 0.0	 0.0	 0.0	 0.0	 0.0; % NG
	46875	 2.4	 0.0	 0.0	 0.0	 1.09969	 3.0	 0	 2.4	 0.0	 0.0	 0.0	 0.0	 0.0	 0.0	 0.0	 0.0	 0.0	 0.0	 0.0	 0.0; % PEL
	47871	 0.0	 3.07	 16.0	 -16.0	 0.98434	 53.44	 1	 48.0	 0.0	 0.0	 0.0	 0.0	 0.0	 0.0	 0.0	 0.0	 0.0	 0.0	 0.0	 0.0; % PEL
	47872	 0.0	 0.0	 0.0	 0.0	 0.95782	 28.39	 1	 30.6	 0.0	 0.0	 0.0	 0.0	 0.0	 0.0	 0.0	 0.0	 0.0	 0.0	 0.0	 0.0; % PEL
	47873	 0.0	 0.0	 0.0	 0.0	 0.98113	 6.68	 1	 5.82	 0.0	 0.0	 0.0	 0.0	 0.0	 0.0	 0.0	 0.0	 0.0	 0.0	 0.0	 0.0; % NG
	49474	 55.0	 -2.483	 93.0	 -59.0	 1.05164	 181.7	 1	 154.3	 55.0	 0.0	 0.0	 0.0	 0.0	 0.0	 0.0	 0.0	 0.0	 0.0	 0.0	 0.0; % NG
	49604	 0.7	 0.0	 0.0	 0.0	 1.00673	 1.0	 0	 0.7	 0.0	 0.0	 0.0	 0.0	 0.0	 0.0	 0.0	 0.0	 0.0	 0.0	 0.0	 0.0; % NG
	49672	 0.0	 0.0	 0.0	 0.0	 0.97034	 3.34	 1	 3.0	 0.0	 0.0	 0.0	 0.0	 0.0	 0.0	 0.0	 0.0	 0.0	 0.0	 0.0	 0.0; % NG
	49971	 0.0	 0.0	 0.0	 0.0	 0.95275	 32.0	 1	 31.5	 0.0	 0.0	 0.0	 0.0	 0.0	 0.0	 0.0	 0.0	 0.0	 0.0	 0.0	 0.0; % PEL
	49973	 0.0	 1.4	 1.4	 -1.4	 0.96426	 6.9	 1	 6.9	 0.0	 0.0	 0.0	 0.0	 0.0	 0.0	 0.0	 0.0	 0.0	 0.0	 0.0	 0.0; % NG
	49975	 0.0	 -1.38	 -1.38	 -1.79	 0.95442	 4.6	 1	 4.2	 0.0	 0.0	 0.0	 0.0	 0.0	 0.0	 0.0	 0.0	 0.0	 0.0	 0.0	 0.0; % NG
	49976	 0.0	 2.0	 2.0	 -2.0	 0.98373	 9.2	 1	 9.2	 0.0	 0.0	 0.0	 0.0	 0.0	 0.0	 0.0	 0.0	 0.0	 0.0	 0.0	 0.0; % NG
	49980	 0.0	 0.0	 0.0	 0.0	 0.93593	 2.3	 1	 0.6	 0.0	 0.0	 0.0	 0.0	 0.0	 0.0	 0.0	 0.0	 0.0	 0.0	 0.0	 0.0; % PEL
	50071	 7.65	 0.0	 0.0	 0.0	 1.06085	 7.65	 1	 7.65	 0.0	 0.0	 0.0	 0.0	 0.0	 0.0	 0.0	 0.0	 0.0	 0.0	 0.0	 0.0; % COW
...
];

%% generator cost data
%	2	startup	shutdown	n	c(n-1)	...	c0
mpc.gencost = [
	2	 0.0	 0.0	 3	   0.000000	   6.705772	   0.000000; % PEL
	2	 0.0	 0.0	 3	   0.000000	   6.772304	   0.000000; % PEL
	2	 0.0	 0.0	 3	   0.000000	   1.102916	   0.000000; % NG
	2	 0.0	 0.0	 3	   0.000000	   6.529801	   0.000000; % PEL
	2	 0.0	 0.0	 3	   0.000000	   6.987836	   0.000000; % PEL
	2	 0.0	 0.0	 3	   0.000000	   7.065571	   0.000000; % PEL
	2	 0.0	 0.0	 3	   0.000000	   0.731229	   0.000000; % COW
	2	 0.0	 0.0	 3	   0.000000	   0.868435	   0.000000; % NG
	2	 0.0	 0.0	 3	   0.000000	   1.310791	   0.000000; % NG
	2	 0.0	 0.0	 3	   0.000000	   1.029123	   0.000000; % NG
	2	 0.0	 0.0	 3	   0.000000	   0.769455	   0.000000; % NG
	2	 0.0	 0.0	 3	   0.000000	   1.409602	   0.000000; % NG
	2	 0.0	 0.0	 3	   0.000000	   1.192949	   0.000000; % NG
	2	 0.0	 0.0	 3	   0.000000	   6.647226	   0.000000; % PEL
	2	 0.0	 0.0	 3	   0.000000	   6.875859	   0.000000; % PEL
	2	 0.0	 0.0	 3	   0.000000	   7.091964	   0.000000; % PEL
	2	 0.0	 0.0	 3	   0.000000	   1.420246	   0.000000; % NG
	2	 0.0	 0.0	 3	   0.000000	   0.787263	   0.000000; % COW
	2	 0.0	 0.0	 3	   0.000000	   1.039979	   0.000000; % NG
	2	 0.0	 0.0	 3	   0.000000	   1.108238	   0.000000; % NG
	2	 0.0	 0.0	 3	   0.000000	   0.927958	   0.000000; % NG
	2	 0.0	 0.0	 3	   0.000000	   1.275032	   0.000000; % NG
	2	 0.0	 0.0	 3	   0.000000	   1.162355	   0.000000; % NG
	2	 0.0	 0.0	 3	   0.000000	   6.713898	   0.000000; % PEL
	2	 0.0	 0.0	 3	   0.000000	   1.281454	   0.000000; % NG
	2	 0.0	 0.0	 3	   0.000000	   1.124515	   0.000000; % NG
	2	 0.0	 0.0	 3	   0.000000	   6.678135	   0.000000; % PEL
	2	 0.0	 0.0	 3	   0.000000	   6.705985	   0.000000; % PEL
	2	 0.0	 0.0	 3	   0.000000	   1.125291	   0.000000; % NG
	2	 0.0	 0.0	 3	   0.000000	   0.663376	   0.000000; % NG
	2	 0.0	 0.0	 3	   0.000000	   1.177870	   0.000000; % NG
	2	 0.0	 0.0	 3	   0.000000	   7.432097	   0.000000; % PEL
	2	 0.0	 0.0	 3	   0.000000	   6.694058	   0.000000; % PEL
	2	 0.0	 0.0	 3	   0.000000	   1.280592	   0.000000; % NG
	2	 0.0	 0.0	 3	   0.000000	   0.940723	   0.000000; % NG
	2	 0.0	 0.0	 3	   0.000000	   1.250777	   0.000000; % NG
	2	 0.0	 0.0	 3	   0.000000	   0.962257	   0.000000; % NG
	2	 0.0	 0.0	 3	   0.000000	   6.005345	   0.000000; % PEL
	2	 0.0	 0.0	 3	   0.000000	   6.517350	   0.000000; % PEL
	2	 0.0	 0.0	 3	   0.000000	   6.997547	   0.000000; % PEL
	2	 0.0	 0.0	 3	   0.000000	   7.191985	   0.000000; % PEL
	2	 0.0	 0.0	 3	   0.000000	   7.475277	   0.000000; % PEL
	2	 0.0	 0.0	 3	   0.000000	   6.374840	   0.000000; % PEL
	2	 0.0	 0.0	 3	   0.000000	   1.194453	   0.000000; % NG
	2	 0.0	 0.0	 3	   0.000000	   1.225400	   0.000000; % NG
	2	 0.0	 0.0	 3	   0.000000	   1.037024	   0.000000; % NG
	2	 0.0	 0.0	 3	   0.000000	   0.405182	   0.000000; % NG
	2	 0.0	 0.0	 3	   0.000000	   1.141187	   0.000000; % NG
	2	 0.0	 0.0	 3	   0.000000	   7.008430	   0.000000; % PEL
	2	 0.0	 0.0	 3	   0.000000	   6.633995	   0.000000; % PEL
	2	 0.0	 0.0	 3	   0.000000	   1.072361	   0.000000; % NG
	2	 0.0	 0.0	 3	   0.000000	   6.947406	   0.000000; % PEL
	2	 0.0	 0.0	 3	   0.000000	   6.817148	   0.000000; % PEL
	2	 0.0	 0.0	 3	   0.000000	   0.966577	   0.000000; % NG
	2	 0.0	 0.0	 3	   0.000000	   1.155131	   0.000000; % NG
	2	 0.0	 0.0	 3	   0.000000	   1.303670	   0.000000; % NG
	2	 0.0	 0.0	 3	   0.000000	   6.865308	   0.000000; % PEL
	2	 0.0	 0.0	 3	   0.000000	   0.805960	   0.000000; % COW
	2	 0.0	 0.0	 3	   0.000000	   6.455197	   0.000000; % PEL
	2	 0.0	 0.0	 3	   0.000000	   6.881799	   0.000000; % PEL
	2	 0.0	 0.0	 3	   0.000000	   0.980462	   0.000000; % NG
	2	 0.0	 0.0	 3	   0.000000	   1.029919	   0.000000; % NG
	2	 0.0	 0.0	 3	   0.000000	   1.228166	   0.000000; % NG
	2	 0.0	 0.0	 3	   0.000000	   6.927709	   0.000000; % PEL
	2	 0.0	 0.0	 3	   0.000000	   6.919956	   0.000000; % PEL
	2	 0.0	 0.0	 3	   0.000000	   0.759011	   0.000000; % NG
	2	 0.0	 0.0	 3	   0.000000	   1.172854	   0.000000; % NG
	2	 0.0	 0.0	 3	   0.000000	   1.119278	   0.000000; % NG
	2	 0.0	 0.0	 3	   0.000000	   0.000000	   0.000000; % SYNC
	2	 0.0	 0.0	 3	   0.000000	   1.221331	   0.000000; % NG
	2	 0.0	 0.0	 3	   0.000000	   0.903735	   0.000000; % NG
	2	 0.0	 0.0	 3	   0.000000	   1.063945	   0.000000; % NG
	2	 0.0	 0.0	 3	   0.000000	   6.967847	   0.000000; % PEL
	2	 0.0	 0.0	 3	   0.000000	   7.039919	   0.000000; % PEL
	2	 0.0	 0.0	 3	   0.000000	   1.388681	   0.000000; % COW
	2	 0.0	 0.0	 3	   0.000000	   1.033905	   0.000000; % NG
	2	 0.0	 0.0	 3	   0.000000	   0.805743	   0.000000; % NG
	2	 0.0	 0.0	 3	   0.000000	   1.141638	   0.000000; % NG
	2	 0.0	 0.0	 3	   0.000000	   7.030594	   0.000000; % PEL
	2	 0.0	 0.0	 3	   0.000000	   6.610447	   0.000000; % PEL
	2	 0.0	 0.0	 3	   0.000000	   6.331500	   0.000000; % PEL
	2	 0.0	 0.0	 3	   0.000000	   1.150889	   0.000000; % NG
	2	 0.0	 0.0	 3	   0.000000	   7.056868	   0.000000; % PEL
	2	 0.0	 0.0	 3	   0.000000	   0.912271	   0.000000; % COW
	2	 0.0	 0.0	 3	   0.000000	   6.415364	   0.000000; % PEL
	2	 0.0	 0.0	 3	   0.000000	   7.338133	   0.000000; % PEL
	2	 0.0	 0.0	 3	   0.000000	   1.180430	   0.000000; % NG
	2	 0.0	 0.0	 3	   0.000000	   1.010379	   0.000000; % NG
	2	 0.0	 0.0	 3	   0.000000	   0.817841	   0.000000; % NG
	2	 0.0	 0.0	 3	   0.000000	   1.166509	   0.000000; % NG
	2	 0.0	 0.0	 3	   0.000000	   0.922434	   0.000000; % NG
	2	 0.0	 0.0	 3	   0.000000	   7.381410	   0.000000; % PEL
	2	 0.0	 0.0	 3	   0.000000	   6.848013	   0.000000; % PEL
	2	 0.0	 0.0	 3	   0.000000	   6.584401	   0.000000; % PEL
	2	 0.0	 0.0	 3	   0.000000	   6.672683	   0.000000; % PEL
	2	 0.0	 0.0	 3	   0.000000	   0.651334	   0.000000; % COW
	2	 0.0	 0.0	 3	   0.000000	   1.226720	   0.000000; % NG
	2	 0.0	 0.0	 3	   0.000000	   6.648268	   0.000000; % PEL
	2	 0.0	 0.0	 3	   0.000000	   1.131771	   0.000000; % NG
	2	 0.0	 0.0	 3	   0.000000	   1.082005	   0.000000; % NG
	2	 0.0	 0.0	 3	   0.000000	   6.953552	   0.000000; % PEL
	2	 0.0	 0.0	 3	   0.000000	   1.072836	   0.000000; % NG
	2	 0.0	 0.0	 3	   0.000000	   1.396655	   0.000000; % NG
	2	 0.0	 0.0	 3	   0.000000	   1.191793	   0.000000; % NG
	2	 0.0	 0.0	 3	   0.000000	   0.000000	   0.000000; % SYNC
	2	 0.0	 0.0	 3	   0.000000	   0.421518	   0.000000; % COW
	2	 0.0	 0.0	 3	   0.000000	   7.259057	   0.000000; % PEL
	2	 0.0	 0.0	 3	   0.000000	   0.937303	   0.000000; % NG
	2	 0.0	 0.0	 3	   0.000000	   6.997530	   0.000000; % PEL
	2	 0.0	 0.0	 3	   0.000000	   1.053643	   0.000000; % NG
	2	 0.0	 0.0	 3	   0.000000	   0.801435	   0.000000; % NG
	2	 0.0	 0.0	 3	   0.000000	   0.965035	   0.000000; % NG
	2	 0.0	 0.0	 3	   0.000000	   1.149117	   0.000000; % NG
	2	 0.0	 0.0	 3	   0.000000	   0.825890	   0.000000; % NG
	2	 0.0	 0.0	 3	   0.000000	   1.348884	   0.000000; % NG
	2	 0.0	 0.0	 3	   0.000000	   1.414237	   0.000000; % NG
	2	 0.0	 0.0	 3	   0.000000	   6.919459	   0.000000; % PEL
	2	 0.0	 0.0	 3	   0.000000	   0.582786	   0.000000; % COW
	2	 0.0	 0.0	 3	   0.000000	   6.824631	   0.000000; % PEL
	2	 0.0	 0.0	 3	   0.000000	   1.002012	   0.000000; % NG
	2	 0.0	 0.0	 3	   0.000000	   7.007134	   0.000000; % PEL
	2	 0.0	 0.0	 3	   0.000000	   0.911719	   0.000000; % NG
	2	 0.0	 0.0	 3	   0.000000	   0.687332	   0.000000; % COW
	2	 0.0	 0.0	 3	   0.000000	   1.258238	   0.000000; % NG
	2	 0.0	 0.0	 3	   0.000000	   1.316270	   0.000000; % NG
	2	 0.0	 0.0	 3	   0.000000	   1.615844	   0.000000; % NG
	2	 0.0	 0.0	 3	   0.000000	   6.966947	   0.000000; % PEL
	2	 0.0	 0.0	 3	   0.000000	   6.668267	   0.000000; % PEL
	2	 0.0	 0.0	 3	   0.000000	   0.983129	   0.000000; % NG
	2	 0.0	 0.0	 3	   0.000000	   0.823339	   0.000000; % NG
	2	 0.0	 0.0	 3	   0.000000	   1.545300	   0.000000; % NG
	2	 0.0	 0.0	 3	   0.000000	   1.240720	   0.000000; % NG
	2	 0.0	 0.0	 3	   0.000000	   6.518180	   0.000000; % PEL
	2	 0.0	 0.0	 3	   0.000000	   0.748153	   0.000000; % COW
	2	 0.0	 0.0	 3	   0.000000	   6.876191	   0.000000; % PEL
	2	 0.0	 0.0	 3	   0.000000	   7.053782	   0.000000; % PEL
	2	 0.0	 0.0	 3	   0.000000	   0.438078	   0.000000; % COW
	2	 0.0	 0.0	 3	   0.000000	   6.632386	   0.000000; % PEL
	2	 0.0	 0.0	 3	   0.000000	   1.212122	   0.000000; % NG
	2	 0.0	 0.0	 3	   0.000000	   1.083414	   0.000000; % COW
	2	 0.0	 0.0	 3	   0.000000	   6.798543	   0.000000; % PEL
	2	 0.0	 0.0	 3	   0.000000	   1.218276	   0.000000; % NG
	2	 0.0	 0.0	 3	   0.000000	   0.825765	   0.000000; % COW
	2	 0.0	 0.0	 3	   0.000000	   1.083146	   0.000000; % NG
	2	 0.0	 0.0	 3	   0.000000	   1.015007	   0.000000; % NG
	2	 0.0	 0.0	 3	   0.000000	   6.634967	   0.000000; % PEL
	2	 0.0	 0.0	 3	   0.000000	   6.868203	   0.000000; % PEL
	2	 0.0	 0.0	 3	   0.000000	   1.118175	   0.000000; % NG
	2	 0.0	 0.0	 3	   0.000000	   1.210870	   0.000000; % NG
	2	 0.0	 0.0	 3	   0.000000	   6.474980	   0.000000; % PEL
	2	 0.0	 0.0	 3	   0.000000	   0.574892	   0.000000; % NG
	2	 0.0	 0.0	 3	   0.000000	   7.060462	   0.000000; % PEL
	2	 0.0	 0.0	 3	   0.000000	   0.901130	   0.000000; % NG
	2	 0.0	 0.0	 3	   0.000000	   5.818735	   0.000000; % PEL
	2	 0.0	 0.0	 3	   0.000000	   6.340145	   0.000000; % PEL
	2	 0.0	 0.0	 3	   0.000000	   1.231079	   0.000000; % NG
	2	 0.0	 0.0	 3	   0.000000	   0.809809	   0.000000; % NG
	2	 0.0	 0.0	 3	   0.000000	   1.114238	   0.000000; % NG
	2	 0.0	 0.0	 3	   0.000000	   0.842322	   0.000000; % NG
	2	 0.0	 0.0	 3	   0.000000	   1.328013	   0.000000; % NG
	2	 0.0	 0.0	 3	   0.000000	   1.176455	   0.000000; % NG
	2	 0.0	 0.0	 3	   0.000000	   0.769402	   0.000000; % NG
	2	 0.0	 0.0	 3	   0.000000	   1.242298	   0.000000; % NG
	2	 0.0	 0.0	 3	   0.000000	   1.001568	   0.000000; % NG
	2	 0.0	 0.0	 3	   0.000000	   7.009657	   0.000000; % PEL
	2	 0.0	 0.0	 3	   0.000000	   0.919235	   0.000000; % NG
	2	 0.0	 0.0	 3	   0.000000	   6.687497	   0.000000; % PEL
	2	 0.0	 0.0	 3	   0.000000	   0.937065	   0.000000; % NG
	2	 0.0	 0.0	 3	   0.000000	   1.140277	   0.000000; % NG
	2	 0.0	 0.0	 3	   0.000000	   6.366980	   0.000000; % PEL
	2	 0.0	 0.0	 3	   0.000000	   1.159031	   0.000000; % NG
	2	 0.0	 0.0	 3	   0.000000	   0.922167	   0.000000; % NG
	2	 0.0	 0.0	 3	   0.000000	   0.671776	   0.000000; % COW
	2	 0.0	 0.0	 3	   0.000000	   7.074159	   0.000000; % PEL
	2	 0.0	 0.0	 3	   0.000000	   0.676459	   0.000000; % NG
	2	 0.0	 0.0	 3	   0.000000	   6.738815	   0.000000; % PEL
	2	 0.0	 0.0	 3	   0.000000	   6.241445	   0.000000; % PEL
	2	 0.0	 0.0	 3	   0.000000	   6.472714	   0.000000; % PEL
	2	 0.0	 0.0	 3	   0.000000	   0.452572	   0.000000; % COW
	2	 0.0	 0.0	 3	   0.000000	   0.489514	   0.000000; % COW
	2	 0.0	 0.0	 3	   0.000000	   0.993641	   0.000000; % NG
	2	 0.0	 0.0	 3	   0.000000	   0.817406	   0.000000; % COW
	2	 0.0	 0.0	 3	   0.000000	   0.901627	   0.000000; % NG
	2	 0.0	 0.0	 3	   0.000000	   1.029975	   0.000000; % NG
	2	 0.0	 0.0	 3	   0.000000	   7.046501	   0.000000; % PEL
	2	 0.0	 0.0	 3	   0.000000	   6.834992	   0.000000; % PEL
	2	 0.0	 0.0	 3	   0.000000	   1.080094	   0.000000; % NG
	2	 0.0	 0.0	 3	   0.000000	   6.645704	   0.000000; % PEL
	2	 0.0	 0.0	 3	   0.000000	   6.859937	   0.000000; % PEL
	2	 0.0	 0.0	 3	   0.000000	   6.894054	   0.000000; % PEL
	2	 0.0	 0.0	 3	   0.000000	   1.300743	   0.000000; % NG
	2	 0.0	 0.0	 3	   0.000000	   1.420839	   0.000000; % NG
	2	 0.0	 0.0	 3	   0.000000	   0.769218	   0.000000; % NG
	2	 0.0	 0.0	 3	   0.000000	   1.106376	   0.000000; % NG
	2	 0.0	 0.0	 3	   0.000000	   7.116984	   0.000000; % PEL
	2	 0.0	 0.0	 3	   0.000000	   1.048553	   0.000000; % NG
	2	 0.0	 0.0	 3	   0.000000	   1.158786	   0.000000; % NG
	2	 0.0	 0.0	 3	   0.000000	   1.229945	   0.000000; % NG
	2	 0.0	 0.0	 3	   0.000000	   7.213575	   0.000000; % PEL
	2	 0.0	 0.0	 3	   0.000000	   0.722605	   0.000000; % COW
...
];

%% branch data
%	fbus	tbus	r	x	b	rateA	rateB	rateC	ratio	angle	status	angmin	angmax
mpc.branch = [
	11	 42404	 0.0036	 0.00391	 0.00207	 100.0	 100.0	 110.0	 0.0	 0.0	 1	 -30.0	 30.0;
	12	 25404	 0.00534	 0.00795	 0.00407	 3605	 3605	 3605	 0.0	 0.0	 1	 -30.0	 30.0;
	12	 25404	 0.00594	 0.00866	 0.00435	 3288	 3288	 3288	 0.0	 0.0	 1	 -30.0	 30.0;
	12	 46504	 0.02132	 0.02114	 0.00329	 1150	 1150	 1150	 0.0	 0.0	 1	 -30.0	 30.0;
	12	 46504	 0.01937	 0.01703	 0.00256	 1339	 1339	 1339	 0.0	 0.0	 1	 -30.0	 30.0;
	1021	 2121	 0.0286	 0.067	 0.0059	 105.0	 105.0	 115.5	 0.0	 0.0	 1	 -30.0	 30.0;
	1021	 2361	 0.0513	 0.1172	 0.0106	 105.0	 105.0	 115.5	 0.0	 0.0	 1	 -30.0	 30.0;
	1021	 3541	 0.0071	 0.037	 0.0116	 99.0	 99.0	 108.9	 0.0	 0.0	 1	 -30.0	 30.0;
	1021	 10210	 0.0	 0.0001	 0.0	 999.0	 999.0	 1098.9	 0.0	 0.0	 1	 -30.0	 30.0;
	1021	 10261	 0.0	 0.0001	 0.0	 105.0	 105.0	 115.5	 0.0	 0.0	 1	 -30.0	 30.0;
	1041	 5481	 0.0049	 0.0107	 0.001	 105.0	 105.0	 115.5	 0.0	 0.0	 1	 -30.0	 30.0;
	1042	 1052	 0.0	 0.0001	 0.0	 9999.0	 9999.0	 10998.9	 0.0	 0.0	 0	 -30.0	 30.0;
	1042	 1062	 0.0	 0.0001	 0.0	 593.0	 593.0	 652.3	 0.0	 0.0	 1	 -30.0	 30.0;
	1042	 1072	 0.0001	 0.0006	 0.0384	 593.0	 593.0	 652.3	 0.0	 0.0	 1	 -30.0	 30.0;
	1042	 3202	 0.003	 0.0222	 0.0335	 434.0	 434.0	 477.4	 0.0	 0.0	 1	 -30.0	 30.0;
	1042	 4722	 0.0012	 0.0078	 0.2591	 434.0	 434.0	 477.4	 0.0	 0.0	 1	 -30.0	 30.0;
	1042	 35771	 0.0001	 0.0004	 0.0265	 593.0	 593.0	 652.3	 0.0	 0.0	 1	 -30.0	 30.0;
	1052	 1062	 0.0	 0.0001	 0.0	 999.0	 999.0	 1098.9	 0.0	 0.0	 0	 -30.0	 30.0;
	1052	 2852	 0.0002	 0.0015	 0.1035	 593.0	 593.0	 652.3	 0.0	 0.0	 1	 -30.0	 30.0;
	1052	 3202	 0.003	 0.0222	 0.0335	 434.0	 434.0	 477.4	 0.0	 0.0	 1	 -30.0	 30.0;
	1061	 10619	 0.0004	 0.0008	 0.0001	 105.0	 105.0	 115.5	 0.0	 0.0	 1	 -30.0	 30.0;
	1062	 1072	 0.0	 0.0001	 0.0	 999.0	 999.0	 1098.9	 0.0	 0.0	 0	 -30.0	 30.0;
	1071	 2231	 0.0125	 0.0276	 0.0026	 105.0	 105.0	 115.5	 0.0	 0.0	 1	 -30.0	 30.0;
	1071	 2361	 0.0594	 0.1314	 0.0123	 105.0	 105.0	 115.5	 0.0	 0.0	 1	 -30.0	 30.0;
	1071	 4941	 0.0718	 0.1589	 0.0148	 105.0	 105.0	 115.5	 0.0	 0.0	 1	 -30.0	 30.0;
	1081	 32810	 0.0039	 0.0123	 0.0035	 68.0	 112.0	 123.2	 0.0	 0.0	 1	 -30.0	 30.0;
	1101	 2161	 0.0031	 0.0069	 0.0006	 45.0	 105.0	 115.5	 0.0	 0.0	 1	 -30.0	 30.0;
	1121	 1301	 0.0102	 0.0787	 0.0071	 136.0	 136.0	 149.6	 0.0	 0.0	 1	 -30.0	 30.0;
	1121	 1541	 0.0207	 0.0952	 0.0102	 137.0	 178.0	 195.8	 0.0	 0.0	 1	 -30.0	 30.0;
	1121	 4901	 0.0035	 0.0077	 0.0008	 34.0	 34.0	 37.4	 0.0	 0.0	 1	 -30.0	 30.0;
	1122	 1742	 0.0062	 0.0462	 0.0697	 434.0	 434.0	 477.4	 0.0	 0.0	 1	 -30.0	 30.0;
	1122	 3642	 0.0046	 0.0338	 0.051	 434.0	 434.0	 477.4	 0.0	 0.0	 1	 -30.0	 30.0;
	1141	 3501	 0.054	 0.123	 0.0116	 105.0	 105.0	 115.5	 0.0	 0.0	 1	 -30.0	 30.0;
	1141	 4941	 0.0135	 0.0696	 0.0113	 137.0	 178.0	 195.8	 0.0	 0.0	 1	 -30.0	 30.0;
	1141	 11461	 0.0	 0.0001	 0.0	 105.0	 105.0	 115.5	 0.0	 0.0	 1	 -30.0	 30.0;
	1161	 1781	 0.001	 0.002	 0.0011	 96.0	 96.0	 105.6	 0.0	 0.0	 1	 -30.0	 30.0;
	1161	 3901	 0.0173	 0.0894	 0.0097	 178.0	 178.0	 195.8	 0.0	 0.0	 1	 -30.0	 30.0;
	1161	 5051	 0.0006	 0.0012	 0.0061	 120.0	 120.0	 132.0	 0.0	 0.0	 1	 -30.0	 30.0;
	1161	 5071	 0.0006	 0.0012	 0.0061	 120.0	 120.0	 132.0	 0.0	 0.0	 1	 -30.0	 30.0;
	1161	 17810	 0.001	 0.0021	 0.0012	 96.0	 96.0	 105.6	 0.0	 0.0	 1	 -30.0	 30.0;
	1161	 51410	 0.0214	 0.1105	 0.012	 178.0	 178.0	 195.8	 0.0	 0.0	 1	 -30.0	 30.0;
	1181	 1861	 0.0644	 0.1424	 0.0133	 105.0	 105.0	 115.5	 0.0	 0.0	 1	 -30.0	 30.0;
	1181	 2821	 0.0193	 0.0994	 0.0108	 178.0	 178.0	 195.8	 0.0	 0.0	 1	 -30.0	 30.0;
	1181	 4221	 0.0381	 0.1969	 0.0214	 120.0	 120.0	 132.0	 0.0	 0.0	 1	 -30.0	 30.0;
	1181	 4961	 0.0292	 0.0645	 0.006	 80.0	 80.0	 88.0	 0.0	 0.0	 1	 -30.0	 30.0;
	1181	 4961	 0.0148	 0.0763	 0.0097	 178.0	 178.0	 195.8	 0.0	 0.0	 1	 -30.0	 30.0;
	1201	 2561	 0.0047	 0.0101	 0.0548	 120.0	 120.0	 132.0	 0.0	 0.0	 1	 -30.0	 30.0;
	1201	 3781	 0.0026	 0.0055	 0.0298	 120.0	 120.0	 132.0	 0.0	 0.0	 1	 -30.0	 30.0;
	1221	 1901	 0.0389	 0.086	 0.008	 105.0	 105.0	 115.5	 0.0	 0.0	 1	 -30.0	 30.0;
	1221	 4481	 0.0414	 0.0915	 0.0086	 105.0	 105.0	 115.5	 0.0	 0.0	 1	 -30.0	 30.0;
	1231	 1841	 0.0111	 0.03	 0.1366	 68.0	 116.0	 127.6	 0.0	 0.0	 1	 -30.0	 30.0;
	1251	 2361	 0.0373	 0.0826	 0.0077	 105.0	 105.0	 115.5	 0.0	 0.0	 1	 -30.0	 30.0;
	1251	 52219	 0.0305	 0.0674	 0.0063	 105.0	 105.0	 115.5	 0.0	 0.0	 1	 -30.0	 30.0;
	1271	 2041	 0.0106	 0.0546	 0.006	 178.0	 178.0	 195.8	 0.0	 0.0	 1	 -30.0	 30.0;
	1271	 2181	 0.0126	 0.065	 0.0071	 178.0	 178.0	 195.8	 0.0	 0.0	 1	 -30.0	 30.0;
	1281	 2221	 0.0426	 0.0943	 0.0098	 68.0	 105.0	 115.5	 0.0	 0.0	 1	 -30.0	 30.0;
...